
     RDKit          3D

  0  0  0  0  0  0  0  0  0  0999 V3000
M  V30 BEGIN CTAB
M  V30 COUNTS 12 11 0 0 0
M  V30 BEGIN ATOM
M  V30 1 O 0.7048 1.4547 -1.1531 0
M  V30 2 C 1.3494 0.7711 -0.3876 0
M  V30 3 C 0.8060 -0.4333 0.2498 0
M  V30 4 C -0.6195 -0.7256 -0.1423 0
M  V30 5 C -1.5164 0.3771 0.2261 0
M  V30 6 O -1.0916 1.3572 0.7710 0
M  V30 7 H 2.3625 1.0706 -0.1741 0
M  V30 8 H 1.4444 -1.3209 0.0340 0
M  V30 9 H 0.7844 -0.2442 1.3640 0
M  V30 10 H -0.9159 -1.6496 0.4295 0
M  V30 11 H -0.7326 -0.9526 -1.2161 0
M  V30 12 H -2.5755 0.2954 -0.0013 0
M  V30 END ATOM
M  V30 BEGIN BOND
M  V30 1 2 1 2
M  V30 2 1 2 3
M  V30 3 1 3 4
M  V30 4 1 4 5
M  V30 5 2 5 6
M  V30 6 1 2 7
M  V30 7 1 3 8
M  V30 8 1 3 9
M  V30 9 1 4 10
M  V30 10 1 4 11
M  V30 11 1 5 12
M  V30 END BOND
M  V30 END CTAB
M  END

$$$$
