
     RDKit          3D

  0  0  0  0  0  0  0  0  0  0999 V3000
M  V30 BEGIN CTAB
M  V30 COUNTS 80 82 0 0 0
M  V30 BEGIN ATOM
M  V30 1 C -1.2611 -0.3065 3.2577 0
M  V30 2 C -0.0989 0.0660 4.1521 0
M  V30 3 C 1.1865 -0.7154 4.0695 0
M  V30 4 C 0.1620 1.5435 4.1306 0
M  V30 5 H -1.7499 0.4653 2.6667 0
M  V30 6 H -0.4678 -0.1462 5.1813 0
M  V30 7 H 1.8991 -0.5099 4.8660 0
M  V30 8 H -0.0032 2.0718 5.0690 0
M  V30 9 C -3.1289 -1.8627 0.0519 0
M  V30 10 C -3.4378 -1.9592 -1.4280 0
M  V30 11 C -3.5777 -0.6388 -2.1452 0
M  V30 12 C -2.5384 -2.9073 -2.1730 0
M  V30 13 H -2.9417 -0.8983 0.5089 0
M  V30 14 H -4.4545 -2.4070 -1.4953 0
M  V30 15 H -3.8139 -0.6641 -3.2075 0
M  V30 16 H -3.0218 -3.7893 -2.5899 0
M  V30 17 C 3.4919 -1.5235 0.0650 0
M  V30 18 C 3.2614 -1.9620 -1.3487 0
M  V30 19 C 1.8685 -2.5008 -1.5418 0
M  V30 20 C 3.5748 -0.8473 -2.2992 0
M  V30 21 H 3.7924 -0.4972 0.2701 0
M  V30 22 H 3.9923 -2.7723 -1.5733 0
M  V30 23 H 1.0007 -1.8919 -1.3068 0
M  V30 24 H 4.3936 -1.0022 -2.9999 0
M  V30 25 C -0.0860 3.5148 0.0716 0
M  V30 26 C 0.1070 3.8905 -1.3797 0
M  V30 27 C 1.2209 3.1740 -2.0921 0
M  V30 28 C -1.1647 3.6743 -2.1472 0
M  V30 29 H -0.3396 2.5010 0.3699 0
M  V30 30 H 0.3495 4.9767 -1.4216 0
M  V30 31 H 0.9926 2.7425 -3.0597 0
M  V30 32 H -1.6479 4.5318 -2.6089 0
M  V30 33 N -1.8469 -1.4337 3.4654 0
M  V30 34 C -3.1935 -1.7453 3.0291 0
M  V30 35 C -3.2909 -3.0479 2.2153 0
M  V30 36 N -3.2748 -2.9274 0.7652 0
M  V30 37 H -3.7348 -0.8899 2.5699 0
M  V30 38 H -3.7381 -1.9427 3.9781 0
M  V30 39 H -2.5552 -3.7986 2.5717 0
M  V30 40 H -4.2977 -3.4643 2.4398 0
M  V30 41 N 1.4461 -1.6328 3.2002 0
M  V30 42 C 2.6438 -2.4471 3.3453 0
M  V30 43 C 3.7578 -2.0503 2.3833 0
M  V30 44 N 3.4282 -2.3833 1.0189 0
M  V30 45 H 2.3852 -3.5217 3.2263 0
M  V30 46 H 3.0677 -2.3379 4.3705 0
M  V30 47 H 4.0088 -0.9733 2.5100 0
M  V30 48 H 4.6618 -2.6384 2.6533 0
M  V30 49 N 0.5283 2.1883 3.0746 0
M  V30 50 C 0.7551 3.6234 3.1391 0
M  V30 51 C -0.2996 4.4005 2.3498 0
M  V30 52 N -0.0405 4.4748 0.9291 0
M  V30 53 H 1.7808 3.8830 2.8129 0
M  V30 54 H 0.6601 3.9696 4.1953 0
M  V30 55 H -1.3273 4.0310 2.5593 0
M  V30 56 H -0.2518 5.4516 2.7109 0
M  V30 57 N -1.2722 -2.7183 -2.3478 0
M  V30 58 C -0.4901 -3.6764 -3.1170 0
M  V30 59 C 0.5138 -4.4183 -2.2294 0
M  V30 60 N 1.7462 -3.6950 -2.0041 0
M  V30 61 H 0.0110 -3.1869 -3.9792 0
M  V30 62 H -1.1635 -4.4553 -3.5435 0
M  V30 63 H 0.0388 -4.7192 -1.2710 0
M  V30 64 H 0.8076 -5.3495 -2.7601 0
M  V30 65 N -3.6307 0.4784 -1.5048 0
M  V30 66 C -3.9527 1.7304 -2.1584 0
M  V30 67 C -2.8323 2.2167 -3.0713 0
M  V30 68 N -1.6474 2.4866 -2.2884 0
M  V30 69 H -4.1353 2.5044 -1.3836 0
M  V30 70 H -4.8907 1.6089 -2.7445 0
M  V30 71 H -2.5973 1.4617 -3.8515 0
M  V30 72 H -3.1846 3.1372 -3.5887 0
M  V30 73 N 2.9314 0.2672 -2.2825 0
M  V30 74 C 3.2843 1.3482 -3.1760 0
M  V30 75 C 3.5574 2.6500 -2.4006 0
M  V30 76 N 2.4254 3.1546 -1.6372 0
M  V30 77 H 2.4763 1.4824 -3.9208 0
M  V30 78 H 4.1982 1.1049 -3.7642 0
M  V30 79 H 4.4201 2.5130 -1.7145 0
M  V30 80 H 3.8420 3.4238 -3.1457 0
M  V30 END ATOM
M  V30 BEGIN BOND
M  V30 1 1 1 2
M  V30 2 1 2 3
M  V30 3 1 2 4
M  V30 4 1 1 5
M  V30 5 1 2 6
M  V30 6 1 3 7
M  V30 7 1 4 8
M  V30 8 1 9 10
M  V30 9 1 10 11
M  V30 10 1 10 12
M  V30 11 1 9 13
M  V30 12 1 10 14
M  V30 13 1 11 15
M  V30 14 1 12 16
M  V30 15 1 17 18
M  V30 16 1 18 19
M  V30 17 1 18 20
M  V30 18 1 17 21
M  V30 19 1 18 22
M  V30 20 1 19 23
M  V30 21 1 20 24
M  V30 22 1 25 26
M  V30 23 1 26 27
M  V30 24 1 26 28
M  V30 25 1 25 29
M  V30 26 1 26 30
M  V30 27 1 27 31
M  V30 28 1 28 32
M  V30 29 1 33 34
M  V30 30 1 34 35
M  V30 31 1 35 36
M  V30 32 1 34 37
M  V30 33 1 34 38
M  V30 34 1 35 39
M  V30 35 1 35 40
M  V30 36 1 41 42
M  V30 37 1 42 43
M  V30 38 1 43 44
M  V30 39 1 42 45
M  V30 40 1 42 46
M  V30 41 1 43 47
M  V30 42 1 43 48
M  V30 43 1 49 50
M  V30 44 1 50 51
M  V30 45 1 51 52
M  V30 46 1 50 53
M  V30 47 1 50 54
M  V30 48 1 51 55
M  V30 49 1 51 56
M  V30 50 1 57 58
M  V30 51 1 58 59
M  V30 52 1 59 60
M  V30 53 1 58 61
M  V30 54 1 58 62
M  V30 55 1 59 63
M  V30 56 1 59 64
M  V30 57 1 65 66
M  V30 58 1 66 67
M  V30 59 1 67 68
M  V30 60 1 66 69
M  V30 61 1 66 70
M  V30 62 1 67 71
M  V30 63 1 67 72
M  V30 64 1 73 74
M  V30 65 1 74 75
M  V30 66 1 75 76
M  V30 67 1 74 77
M  V30 68 1 74 78
M  V30 69 1 75 79
M  V30 70 1 75 80
M  V30 71 2 1 33
M  V30 72 2 9 36
M  V30 73 2 3 41
M  V30 74 2 17 44
M  V30 75 2 4 49
M  V30 76 2 25 52
M  V30 77 2 12 57
M  V30 78 2 19 60
M  V30 79 2 11 65
M  V30 80 2 28 68
M  V30 81 2 20 73
M  V30 82 2 27 76
M  V30 END BOND
M  V30 END CTAB
M  END

$$$$
