
     RDKit          3D

  0  0  0  0  0  0  0  0  0  0999 V3000
M  V30 BEGIN CTAB
M  V30 COUNTS 43 48 0 0 0
M  V30 BEGIN ATOM
M  V30 1 Fe -0.4347 0.4963 0.1898 0 CHG=2
M  V30 2 C -1.5702 3.3109 0.0421 0
M  V30 3 N -0.6322 2.3423 0.0421 0
M  V30 4 C 0.6847 2.6054 0.0421 0
M  V30 5 C 1.7015 1.5629 0.0422 0
M  V30 6 N 1.4022 0.3080 0.0421 0
M  V30 7 Br 2.7917 -0.9632 0.0422 0
M  V30 8 C 1.0741 3.9159 0.0421 0
M  V30 9 C 0.1335 4.9277 0.0421 0
M  V30 10 C -1.2211 4.6555 0.0421 0
M  V30 11 H -2.6366 3.0977 0.0421 0
M  V30 12 H 2.7342 1.8410 0.0422 0
M  V30 13 H 2.1297 4.1629 0.0422 0
M  V30 14 H 0.4175 5.9758 0.0421 0
M  V30 15 H -1.9621 5.4458 0.0421 0
M  V30 16 C -0.3505 1.6686 3.0569 0
M  V30 17 N -0.3505 0.7305 2.0883 0
M  V30 18 C -0.3505 -0.5864 2.3514 0
M  V30 19 C -0.3505 -1.6032 1.3089 0
M  V30 20 N -0.3505 -1.3038 0.0539 0
M  V30 21 Br -0.3505 -2.6933 -1.2172 0
M  V30 22 C -0.3505 -0.9757 3.6619 0
M  V30 23 C -0.3505 -0.0351 4.6737 0
M  V30 24 C -0.3505 1.3195 4.4015 0
M  V30 25 H -0.3504 2.7349 2.8437 0
M  V30 26 H -0.3505 -2.6358 1.5870 0
M  V30 27 H -0.3505 -2.0313 3.9089 0
M  V30 28 H -0.3505 -0.3191 5.7218 0
M  V30 29 H -0.3504 2.0605 5.1918 0
M  V30 30 C -3.2118 0.1801 1.4179 0
M  V30 31 N -2.2432 0.1801 0.4799 0
M  V30 32 C -2.5062 0.1801 -0.8370 0
M  V30 33 C -1.4637 0.1802 -1.8538 0
M  V30 34 N -0.2088 0.1801 -1.5545 0
M  V30 35 Br 1.0624 0.1802 -2.9440 0
M  V30 36 C -3.8168 0.1801 -1.2264 0
M  V30 37 C -4.8286 0.1801 -0.2858 0
M  V30 38 C -4.5564 0.1801 1.0688 0
M  V30 39 H -2.9985 0.1801 2.4843 0
M  V30 40 H -1.7418 0.1802 -2.8865 0
M  V30 41 H -4.0638 0.1802 -2.2820 0
M  V30 42 H -5.8767 0.1801 -0.5698 0
M  V30 43 H -5.3466 0.1801 1.8098 0
M  V30 END ATOM
M  V30 BEGIN BOND
M  V30 1 2 2 3
M  V30 2 1 3 4
M  V30 3 1 4 5
M  V30 4 2 5 6
M  V30 5 1 6 7
M  V30 6 2 4 8
M  V30 7 1 8 9
M  V30 8 2 9 10
M  V30 9 1 10 2
M  V30 10 1 2 11
M  V30 11 1 5 12
M  V30 12 1 8 13
M  V30 13 1 9 14
M  V30 14 1 10 15
M  V30 15 2 16 17
M  V30 16 1 17 18
M  V30 17 1 18 19
M  V30 18 2 19 20
M  V30 19 1 20 21
M  V30 20 2 18 22
M  V30 21 1 22 23
M  V30 22 2 23 24
M  V30 23 1 24 16
M  V30 24 1 16 25
M  V30 25 1 19 26
M  V30 26 1 22 27
M  V30 27 1 23 28
M  V30 28 1 24 29
M  V30 29 2 30 31
M  V30 30 1 31 32
M  V30 31 1 32 33
M  V30 32 2 33 34
M  V30 33 1 34 35
M  V30 34 2 32 36
M  V30 35 1 36 37
M  V30 36 2 37 38
M  V30 37 1 38 30
M  V30 38 1 30 39
M  V30 39 1 33 40
M  V30 40 1 36 41
M  V30 41 1 37 42
M  V30 42 1 38 43
M  V30 43 9 6 1
M  V30 44 9 3 1
M  V30 45 9 20 1
M  V30 46 9 17 1
M  V30 47 9 34 1
M  V30 48 9 31 1
M  V30 END BOND
M  V30 END CTAB
M  END

$$$$
