
     RDKit          3D

  0  0  0  0  0  0  0  0  0  0999 V3000
M  V30 BEGIN CTAB
M  V30 COUNTS 18 17 0 0 0
M  V30 BEGIN ATOM
M  V30 1 N -0.5534 0.0733 0.0429 0
M  V30 2 C 0.4018 1.0608 0.5462 0
M  V30 3 C 1.5945 1.2339 -0.4012 0
M  V30 4 N 2.3051 -0.0237 -0.5541 0
M  V30 5 H -0.8824 0.3552 -0.9093 0
M  V30 6 H -0.1008 -0.8675 -0.0163 0
M  V30 7 H 0.7587 0.7497 1.5524 0
M  V30 8 H -0.1184 2.0367 0.6517 0
M  V30 9 H 1.2233 1.5586 -1.3961 0
M  V30 10 H 2.2448 2.0401 -0.0042 0
M  V30 11 C 3.5663 -0.2215 -0.3495 0
M  V30 12 C 4.5264 0.8677 0.0643 0
M  V30 13 C 5.9262 0.3423 0.1753 0
M  V30 14 O 6.1983 -0.5367 0.9777 0
M  V30 15 H 3.9502 -1.2254 -0.5064 0
M  V30 16 H 4.2218 1.2899 1.0456 0
M  V30 17 H 4.5129 1.6717 -0.7024 0
M  V30 18 H 6.7086 0.7502 -0.4573 0
M  V30 END ATOM
M  V30 BEGIN BOND
M  V30 1 1 1 2
M  V30 2 1 2 3
M  V30 3 1 3 4
M  V30 4 1 1 5
M  V30 5 1 1 6
M  V30 6 1 2 7
M  V30 7 1 2 8
M  V30 8 1 3 9
M  V30 9 1 3 10
M  V30 10 1 11 12
M  V30 11 1 12 13
M  V30 12 2 13 14
M  V30 13 1 11 15
M  V30 14 1 12 16
M  V30 15 1 12 17
M  V30 16 1 13 18
M  V30 17 2 4 11
M  V30 END BOND
M  V30 END CTAB
M  END

$$$$
