
     RDKit          3D

  0  0  0  0  0  0  0  0  0  0999 V3000
M  V30 BEGIN CTAB
M  V30 COUNTS 44 43 0 0 0
M  V30 BEGIN ATOM
M  V30 1 Br 2.1656 1.8428 0.0111 0
M  V30 2 C 2.7048 -0.0339 0.0074 0
M  V30 3 C 4.2395 -0.0339 0.0074 0
M  V30 4 H 2.2937 -0.5356 -0.8739 0
M  V30 5 H 2.3211 -0.4530 0.9579 0
M  V30 6 H 4.6243 0.5890 -0.8245 0
M  V30 7 H 4.6384 -1.0613 -0.0116 0
M  V30 8 C 11.2681 -0.0050 0.0149 0
M  V30 9 C 12.8029 -0.0050 0.0149 0
M  V30 10 H 10.8571 -0.5067 -0.8663 0
M  V30 11 H 10.8845 -0.4242 0.9655 0
M  V30 12 H 13.1877 0.6179 -0.8170 0
M  V30 13 H 13.2017 -1.0325 -0.0040 0
M  V30 14 C 19.9946 0.0053 0.0025 0
M  V30 15 C 21.5294 0.0053 0.0025 0
M  V30 16 H 19.5835 -0.4964 -0.8787 0
M  V30 17 H 19.6109 -0.4138 0.9531 0
M  V30 18 H 21.9141 0.6282 -0.8294 0
M  V30 19 H 21.9282 -1.0221 -0.0164 0
M  V30 20 C 6.4273 0.0095 0.0007 0
M  V30 21 N 7.6316 -0.5013 0.5733 0
M  V30 22 C 8.8433 0.0095 0.0007 0
M  V30 23 H 6.2842 -0.2798 -1.0615 0
M  V30 24 H 5.5665 -0.4087 0.5514 0
M  V30 25 H 7.6578 -1.5392 0.4706 0
M  V30 26 H 8.9711 -0.3542 -1.0381 0
M  V30 27 H 9.6866 -0.4428 0.5912 0
M  V30 28 C 15.1819 0.0225 -0.0043 0
M  V30 29 N 16.3862 -0.4884 0.5683 0
M  V30 30 C 17.5979 0.0225 -0.0043 0
M  V30 31 H 15.0388 -0.2668 -1.0666 0
M  V30 32 H 14.3211 -0.3958 0.5464 0
M  V30 33 H 16.4124 -1.5263 0.4656 0
M  V30 34 H 17.7257 -0.3413 -1.0432 0
M  V30 35 H 18.4412 -0.4298 0.5861 0
M  V30 36 C 23.8427 -0.0046 -0.0050 0
M  V30 37 N 25.0470 -0.5154 0.5676 0
M  V30 38 C 26.2586 -0.0046 -0.0050 0
M  V30 39 Br 26.4513 1.8994 0.1517 0
M  V30 40 H 23.6996 -0.2939 -1.0672 0
M  V30 41 H 22.9819 -0.4228 0.5457 0
M  V30 42 H 25.0731 -1.5534 0.4649 0
M  V30 43 H 26.3864 -0.3683 -1.0438 0
M  V30 44 H 27.1020 -0.4569 0.5855 0
M  V30 END ATOM
M  V30 BEGIN BOND
M  V30 1 1 1 2
M  V30 2 1 2 3
M  V30 3 1 2 4
M  V30 4 1 2 5
M  V30 5 1 3 6
M  V30 6 1 3 7
M  V30 7 1 8 9
M  V30 8 1 8 10
M  V30 9 1 8 11
M  V30 10 1 9 12
M  V30 11 1 9 13
M  V30 12 1 14 15
M  V30 13 1 14 16
M  V30 14 1 14 17
M  V30 15 1 15 18
M  V30 16 1 15 19
M  V30 17 1 20 21
M  V30 18 1 21 22
M  V30 19 1 20 23
M  V30 20 1 20 24
M  V30 21 1 21 25
M  V30 22 1 22 26
M  V30 23 1 22 27
M  V30 24 1 28 29
M  V30 25 1 29 30
M  V30 26 1 28 31
M  V30 27 1 28 32
M  V30 28 1 29 33
M  V30 29 1 30 34
M  V30 30 1 30 35
M  V30 31 1 36 37
M  V30 32 1 37 38
M  V30 33 1 38 39
M  V30 34 1 36 40
M  V30 35 1 36 41
M  V30 36 1 37 42
M  V30 37 1 38 43
M  V30 38 1 38 44
M  V30 39 1 3 20
M  V30 40 1 8 22
M  V30 41 1 9 28
M  V30 42 1 14 30
M  V30 43 1 15 36
M  V30 END BOND
M  V30 END CTAB
M  END

$$$$
