
     RDKit          3D

  0  0  0  0  0  0  0  0  0  0999 V3000
M  V30 BEGIN CTAB
M  V30 COUNTS 48 48 0 0 0
M  V30 BEGIN ATOM
M  V30 1 C 4.1821 0.2412 0.0360 0
M  V30 2 C 3.7299 -1.3282 0.0838 0
M  V30 3 H 4.6889 0.3336 -0.9683 0
M  V30 4 H 4.9586 0.4258 0.8298 0
M  V30 5 H 4.8486 -1.4061 -0.1205 0
M  V30 6 H 3.0953 -1.3189 -0.8087 0
M  V30 7 C 2.4685 2.9665 -0.0541 0
M  V30 8 C 3.3297 1.6117 -0.0335 0
M  V30 9 H 2.7115 3.4149 -1.0502 0
M  V30 10 H 2.9433 3.6504 0.7081 0
M  V30 11 H 4.2555 2.2091 -0.3241 0
M  V30 12 H 2.6361 1.1625 -0.7937 0
M  V30 13 C -0.6145 3.6033 -0.0053 0
M  V30 14 C 0.8794 3.0681 0.0420 0
M  V30 15 H -0.6795 4.2444 -0.9472 0
M  V30 16 H -0.8417 4.3416 0.8118 0
M  V30 17 H 1.1037 4.1865 0.0012 0
M  V30 18 H 0.8009 2.6811 1.0613 0
M  V30 19 C -2.9449 1.5091 0.2466 0
M  V30 20 C -1.8273 2.5911 -0.2203 0
M  V30 21 H -3.6158 1.8278 -0.6241 0
M  V30 22 H -3.6028 1.8618 1.0707 0
M  V30 23 H -2.5237 3.4360 -0.4964 0
M  V30 24 H -1.4001 2.0447 -1.0626 0
M  V30 25 C -3.2764 -1.6859 0.0871 0
M  V30 26 C -3.1056 -0.0786 -0.1203 0
M  V30 27 H -3.7916 -1.8811 -0.9122 0
M  V30 28 H -4.0545 -1.8643 0.8711 0
M  V30 29 H -4.2019 0.0042 -0.3938 0
M  V30 30 H -2.4124 -0.1062 -0.9640 0
M  V30 31 C -1.5547 -4.3822 0.0915 0
M  V30 32 C -2.1755 -2.8830 0.1093 0
M  V30 33 H -1.8202 -4.7982 -0.9424 0
M  V30 34 H -2.0651 -5.0639 0.8295 0
M  V30 35 H -3.1023 -3.5123 -0.1239 0
M  V30 36 H -1.5953 -2.5099 -0.7414 0
M  V30 37 C 1.5829 -5.0168 0.1968 0
M  V30 38 C 0.0203 -4.6121 0.1372 0
M  V30 39 H 1.6615 -5.6601 -0.7434 0
M  V30 40 H 1.8382 -5.7615 0.9882 0
M  V30 41 H -0.2053 -5.7235 -0.0952 0
M  V30 42 H 0.1965 -3.9255 -0.6772 0
M  V30 43 C 3.9582 -2.9448 0.1516 0
M  V30 44 C 2.8008 -4.0224 -0.1468 0
M  V30 45 H 4.6064 -3.1955 -0.7607 0
M  V30 46 H 4.6176 -3.2816 0.9959 0
M  V30 47 H 3.4941 -4.8445 -0.4647 0
M  V30 48 H 2.3506 -3.5059 -1.0057 0
M  V30 END ATOM
M  V30 BEGIN BOND
M  V30 1 1 1 2
M  V30 2 1 1 3
M  V30 3 1 1 4
M  V30 4 1 2 5
M  V30 5 1 2 6
M  V30 6 1 7 8
M  V30 7 1 7 9
M  V30 8 1 7 10
M  V30 9 1 8 11
M  V30 10 1 8 12
M  V30 11 1 13 14
M  V30 12 1 13 15
M  V30 13 1 13 16
M  V30 14 1 14 17
M  V30 15 1 14 18
M  V30 16 1 19 20
M  V30 17 1 19 21
M  V30 18 1 19 22
M  V30 19 1 20 23
M  V30 20 1 20 24
M  V30 21 1 25 26
M  V30 22 1 25 27
M  V30 23 1 25 28
M  V30 24 1 26 29
M  V30 25 1 26 30
M  V30 26 1 31 32
M  V30 27 1 31 33
M  V30 28 1 31 34
M  V30 29 1 32 35
M  V30 30 1 32 36
M  V30 31 1 37 38
M  V30 32 1 37 39
M  V30 33 1 37 40
M  V30 34 1 38 41
M  V30 35 1 38 42
M  V30 36 1 43 44
M  V30 37 1 43 45
M  V30 38 1 43 46
M  V30 39 1 44 47
M  V30 40 1 44 48
M  V30 41 1 1 8
M  V30 42 1 7 14
M  V30 43 1 13 20
M  V30 44 1 19 26
M  V30 45 1 25 32
M  V30 46 1 31 38
M  V30 47 1 37 44
M  V30 48 1 2 43
M  V30 END BOND
M  V30 END CTAB
M  END

$$$$
