
     RDKit          3D

  0  0  0  0  0  0  0  0  0  0999 V3000
M  V30 BEGIN CTAB
M  V30 COUNTS 43 48 0 0 0
M  V30 BEGIN ATOM
M  V30 1 Fe -0.4442 0.4839 0.2596 0 CHG=2
M  V30 2 C -1.4711 2.8828 0.1058 0
M  V30 3 N -0.4580 1.9994 0.1911 0
M  V30 4 C 0.8284 2.6008 0.1586 0
M  V30 5 C 1.7061 1.5931 0.2223 0
M  V30 6 N 1.0450 0.4974 0.2844 0
M  V30 7 Br 2.3041 -0.9732 0.4187 0
M  V30 8 C 1.1148 3.9069 0.0766 0
M  V30 9 C 0.0021 4.8504 0.0228 0
M  V30 10 C -1.2423 4.3644 0.0366 0
M  V30 11 H -2.5228 2.6375 0.1082 0
M  V30 12 H 2.7867 1.6847 0.2224 0
M  V30 13 H 2.1430 4.2587 0.0531 0
M  V30 14 H 0.1945 5.9187 -0.0258 0
M  V30 15 H -2.0807 5.0531 0.0008 0
M  V30 16 C -0.4049 1.5175 2.6490 0
M  V30 17 N -0.4009 0.4932 1.7748 0
M  V30 18 C -0.3391 -0.7841 2.3902 0
M  V30 19 C -0.3971 -1.6662 1.3910 0
M  V30 20 N -0.4608 -1.0088 0.2912 0
M  V30 21 Br -0.6185 -2.2878 -1.1593 0
M  V30 22 C -0.3013 -1.0539 3.7013 0
M  V30 23 C -0.3095 0.0715 4.6327 0
M  V30 24 C -0.3562 1.3092 4.1324 0
M  V30 25 H -0.4430 2.5657 2.3931 0
M  V30 26 H -0.4063 -2.7458 1.4900 0
M  V30 27 H -0.2866 -2.0773 4.0652 0
M  V30 28 H -0.2863 -0.1057 5.7040 0
M  V30 29 H -0.3651 2.1576 4.8100 0
M  V30 30 C -2.8442 0.3269 1.2748 0
M  V30 31 N -1.9598 0.4334 0.2644 0
M  V30 32 C -2.5581 0.4099 -1.0243 0
M  V30 33 C -1.5423 0.4691 -1.8988 0
M  V30 34 N -0.4479 0.4557 -1.2289 0
M  V30 35 Br 1.0435 0.3823 -2.4664 0
M  V30 36 C -3.8624 0.2914 -1.3102 0
M  V30 37 C -4.8046 0.2035 -0.1961 0
M  V30 38 C -4.3204 0.2277 1.0476 0
M  V30 39 H -2.6045 0.3069 2.3269 0
M  V30 40 H -1.6255 0.4324 -2.9792 0
M  V30 41 H -4.2130 0.2460 -2.3372 0
M  V30 42 H -5.8707 0.1159 -0.3846 0
M  V30 43 H -5.0039 0.1629 1.8889 0
M  V30 END ATOM
M  V30 BEGIN BOND
M  V30 1 2 2 3
M  V30 2 1 3 4
M  V30 3 1 4 5
M  V30 4 2 5 6
M  V30 5 1 6 7
M  V30 6 2 4 8
M  V30 7 1 8 9
M  V30 8 2 9 10
M  V30 9 1 10 2
M  V30 10 1 2 11
M  V30 11 1 5 12
M  V30 12 1 8 13
M  V30 13 1 9 14
M  V30 14 1 10 15
M  V30 15 2 16 17
M  V30 16 1 17 18
M  V30 17 1 18 19
M  V30 18 2 19 20
M  V30 19 1 20 21
M  V30 20 2 18 22
M  V30 21 1 22 23
M  V30 22 2 23 24
M  V30 23 1 24 16
M  V30 24 1 16 25
M  V30 25 1 19 26
M  V30 26 1 22 27
M  V30 27 1 23 28
M  V30 28 1 24 29
M  V30 29 2 30 31
M  V30 30 1 31 32
M  V30 31 1 32 33
M  V30 32 2 33 34
M  V30 33 1 34 35
M  V30 34 2 32 36
M  V30 35 1 36 37
M  V30 36 2 37 38
M  V30 37 1 38 30
M  V30 38 1 30 39
M  V30 39 1 33 40
M  V30 40 1 36 41
M  V30 41 1 37 42
M  V30 42 1 38 43
M  V30 43 9 6 1
M  V30 44 9 3 1
M  V30 45 9 20 1
M  V30 46 9 17 1
M  V30 47 9 34 1
M  V30 48 9 31 1
M  V30 END BOND
M  V30 END CTAB
M  END

$$$$
