
     RDKit          3D

  0  0  0  0  0  0  0  0  0  0999 V3000
M  V30 BEGIN CTAB
M  V30 COUNTS 185 196 0 0 0
M  V30 BEGIN ATOM
M  V30 1 C -2.1328 -1.4475 5.3250 0
M  V30 2 C -0.8660 -0.7227 5.3250 0
M  V30 3 C -0.8335 0.6638 5.3250 0
M  V30 4 C 0.3352 1.3754 5.3250 0
M  V30 5 C 0.3494 2.8340 5.3250 0
M  V30 6 C 1.5032 0.6608 5.3250 0
M  V30 7 C 1.5421 -0.7325 5.3250 0
M  V30 8 C 2.8174 -1.4379 5.3250 0
M  V30 9 C 0.3380 -1.3852 5.3250 0
M  V30 10 H -2.1135 -2.5202 5.3250 0
M  V30 11 H -1.7917 1.1780 5.3250 0
M  V30 12 H 1.2790 3.3774 5.3250 0
M  V30 13 H 2.4560 1.1985 5.3250 0
M  V30 14 H 3.7145 -0.8584 5.3249 0
M  V30 15 H 0.3353 -2.4676 5.3250 0
M  V30 16 C -5.4614 -2.8049 0.9503 0
M  V30 17 C -5.0430 -2.5568 -0.4257 0
M  V30 18 C -4.2425 -3.4623 -1.1058 0
M  V30 19 C -3.8316 -3.2620 -2.3955 0
M  V30 20 C -2.9895 -4.2262 -3.0947 0
M  V30 21 C -4.2442 -2.1112 -3.0124 0
M  V30 22 C -5.0486 -1.1599 -2.3873 0
M  V30 23 C -5.4559 0.0467 -3.0961 0
M  V30 24 C -5.4255 -1.4200 -1.0965 0
M  V30 25 H -6.0808 -2.0787 1.4402 0
M  V30 26 H -3.9456 -4.3584 -0.5659 0
M  V30 27 H -2.6758 -4.0517 -4.1099 0
M  V30 28 H -3.9338 -1.9196 -4.0438 0
M  V30 29 H -5.1213 0.1783 -4.1017 0
M  V30 30 H -6.0504 -0.6999 -0.5840 0
M  V30 31 C 4.5819 -3.2378 1.0089 0
M  V30 32 C 4.1578 -2.9995 -0.3671 0
M  V30 33 C 4.5418 -1.8535 -1.0472 0
M  V30 34 C 4.1628 -1.5978 -2.3369 0
M  V30 35 C 4.5768 -0.3864 -3.0361 0
M  V30 36 C 3.3725 -2.5305 -2.9537 0
M  V30 37 C 2.9509 -3.7028 -2.3287 0
M  V30 38 C 2.1096 -4.6588 -3.0374 0
M  V30 39 C 3.3645 -3.8991 -1.0378 0
M  V30 40 H 4.2626 -4.1373 1.4988 0
M  V30 41 H 5.1693 -1.1483 -0.5072 0
M  V30 42 H 4.2689 -0.2019 -4.0513 0
M  V30 43 H 3.0514 -2.3575 -3.9852 0
M  V30 44 H 1.8283 -4.4348 -4.0431 0
M  V30 45 H 3.0534 -4.8004 -0.5254 0
M  V30 46 C 0.1501 6.2316 0.9191 0
M  V30 47 C 0.1557 5.7451 -0.4568 0
M  V30 48 C -1.0288 5.5046 -1.1370 0
M  V30 49 C -1.0607 5.0487 -2.4267 0
M  V30 50 C -2.3168 4.8014 -3.1259 0
M  V30 51 C 0.1422 4.8306 -3.0435 0
M  V30 52 C 1.3682 5.0516 -2.4185 0
M  V30 53 C 2.6169 4.8010 -3.1272 0
M  V30 54 C 1.3314 5.5080 -1.1276 0
M  V30 55 H 1.0886 6.4048 1.4090 0
M  V30 56 H -1.9532 5.6955 -0.5970 0
M  V30 57 H -2.3226 4.4425 -4.1411 0
M  V30 58 H 0.1530 4.4659 -4.0750 0
M  V30 59 H 2.5635 4.4454 -4.1328 0
M  V30 60 H 2.2675 5.6891 -0.6152 0
M  V30 61 N -3.7240 -2.4016 4.8762 0
M  V30 62 C -5.1403 -2.7918 4.8139 0
M  V30 63 C -5.5117 -3.2544 6.2049 0
M  V30 64 C -6.7865 -4.0358 6.2471 0
M  V30 65 C -7.4333 -3.9065 4.8639 0
M  V30 66 C -6.5180 -4.6937 3.9302 0
M  V30 67 C -5.2501 -3.8709 3.7864 0
M  V30 68 N -5.1997 -3.2536 2.4664 0
M  V30 69 H -5.6882 -1.8603 4.5271 0
M  V30 70 H -4.6910 -3.9214 6.5472 0
M  V30 71 H -5.6354 -2.3672 6.8518 0
M  V30 72 H -6.5895 -5.1320 6.3686 0
M  V30 73 H -7.4577 -3.7130 7.0485 0
M  V30 74 H -8.4302 -4.3572 4.9497 0
M  V30 75 H -7.4984 -2.8505 4.5790 0
M  V30 76 H -6.2089 -5.6387 4.4508 0
M  V30 77 H -6.9899 -4.9405 2.9811 0
M  V30 78 H -4.3317 -4.5188 3.8418 0
M  V30 79 N 4.1124 -2.2460 4.6835 0
M  V30 80 C 5.1587 -3.2772 4.6212 0
M  V30 81 C 5.7452 -3.3671 6.0122 0
M  V30 82 C 7.0595 -4.0800 6.0545 0
M  V30 83 C 7.2709 -4.7050 4.6713 0
M  V30 84 C 7.4946 -3.5188 3.7374 0
M  V30 85 C 6.1479 -2.8326 3.5936 0
M  V30 86 N 5.5881 -3.0980 2.2737 0
M  V30 87 H 4.6262 -4.2175 4.3347 0
M  V30 88 H 5.9122 -2.3228 6.3543 0
M  V30 89 H 5.0390 -3.9179 6.6593 0
M  V30 90 H 7.9102 -3.3611 6.1758 0
M  V30 91 H 7.1158 -4.8226 6.8559 0
M  V30 92 H 8.1600 -5.3428 4.7571 0
M  V30 93 H 6.3891 -5.2896 4.3866 0
M  V30 94 H 8.1584 -2.7784 4.2578 0
M  V30 95 H 7.9443 -3.8041 2.7883 0
M  V30 96 H 6.2496 -1.7132 3.6488 0
M  V30 97 N 0.5768 4.7103 5.0352 0
M  V30 98 C 0.9474 6.1318 4.9728 0
M  V30 99 C 0.7328 6.6848 6.3639 0
M  V30 100 C 0.6938 8.1795 6.4062 0
M  V30 101 C 1.1291 8.6749 5.0228 0
M  V30 102 C -0.0106 8.2760 4.0893 0
M  V30 103 C 0.0678 6.7667 3.9455 0
M  V30 104 N 0.5768 6.4143 2.6254 0
M  V30 105 H 2.0280 6.1403 4.6859 0
M  V30 106 H -0.2552 6.3077 6.7064 0
M  V30 107 H 1.5630 6.3482 7.0107 0
M  V30 108 H -0.3539 8.5573 6.5278 0
M  V30 109 H 1.3092 8.5993 7.2074 0
M  V30 110 H 1.2374 9.7636 5.1086 0
M  V30 111 H 2.0760 8.2031 4.7378 0
M  V30 112 H -0.9834 8.4811 4.6100 0
M  V30 113 H 0.0116 8.8081 3.1402 0
M  V30 114 H -0.9527 6.2955 4.0011 0
M  V30 115 N -2.2081 -5.5771 -3.7805 0
M  V30 116 C -1.3365 -6.2811 -4.7326 0
M  V30 117 C -2.1530 -7.4292 -5.2822 0
M  V30 118 C -1.3245 -8.4679 -5.9694 0
M  V30 119 C 0.0910 -7.8947 -6.0970 0
M  V30 120 C 0.6229 -7.8472 -4.6673 0
M  V30 121 C -0.1311 -6.7281 -3.9714 0
M  V30 122 N 0.7433 -5.5771 -3.7805 0
M  V30 123 H -1.0973 -5.5274 -5.5230 0
M  V30 124 H -2.6503 -7.9100 -4.4121 0
M  V30 125 H -2.8754 -7.0302 -6.0168 0
M  V30 126 H -1.2057 -9.3822 -5.3329 0
M  V30 127 H -1.7364 -8.7698 -6.9369 0
M  V30 128 H 0.6495 -8.5982 -6.7276 0
M  V30 129 H 0.0513 -6.8989 -6.5524 0
M  V30 130 H 0.3162 -8.7912 -4.1436 0
M  V30 131 H 1.7050 -7.7417 -4.6199 0
M  V30 132 H -0.4485 -7.0297 -2.9347 0
M  V30 133 N -5.2876 1.5897 -4.0230 0
M  V30 134 C -5.8320 2.9106 -4.3707 0
M  V30 135 C -7.0194 2.6533 -5.2711 0
M  V30 136 C -7.4654 3.8674 -6.0225 0
M  V30 137 C -6.6970 5.0582 -5.4394 0
M  V30 138 C -5.2495 4.8368 -5.8696 0
M  V30 139 C -4.7361 3.6697 -5.0453 0
M  V30 140 N -3.8119 4.1457 -4.0230 0
M  V30 141 H -6.1411 3.3653 -3.3972 0
M  V30 142 H -6.6957 1.8921 -6.0136 0
M  V30 143 H -7.8659 2.3078 -4.6506 0
M  V30 144 H -7.1491 3.8219 -7.0963 0
M  V30 145 H -8.5485 4.0172 -5.9858 0
M  V30 146 H -7.1352 5.9562 -5.8935 0
M  V30 147 H -6.8023 5.0732 -4.3489 0
M  V30 148 H -5.2467 4.4809 -6.9340 0
M  V30 149 H -4.6393 5.7340 -5.7858 0
M  V30 150 H -4.1348 2.9560 -5.6741 0
M  V30 151 N 5.2656 1.2076 -3.0023 0
M  V30 152 C 5.4395 2.3145 -3.9544 0
M  V30 153 C 6.8421 2.1814 -4.5039 0
M  V30 154 C 7.3274 3.4182 -5.1911 0
M  V30 155 C 6.1232 4.3574 -5.3188 0
M  V30 156 C 5.8161 4.7944 -3.8891 0
M  V30 157 C 5.2240 3.5819 -3.1932 0
M  V30 158 N 3.7900 3.7636 -3.0023 0
M  V30 159 H 4.6672 2.1448 -4.7448 0
M  V30 160 H 7.5071 1.9911 -3.6338 0
M  V30 161 H 6.8577 1.3562 -5.2386 0
M  V30 162 H 8.0598 3.9782 -4.5546 0
M  V30 163 H 7.7948 3.2125 -6.1587 0
M  V30 164 H 6.4532 5.1929 -5.9493 0
M  V30 165 H 5.2807 3.8252 -5.7742 0
M  V30 166 H 6.7870 5.0008 -3.3654 0
M  V30 167 H 5.1837 5.6788 -3.8416 0
M  V30 168 H 5.6439 3.4578 -2.1565 0
M  V30 169 Br 1.1870 3.0000 0.0000 0
M  V30 170 Br -1.1870 3.0000 0.0000 0
M  V30 171 C 1.7322 -1.0288 -0.1311 0
M  V30 172 C 2.2157 0.3700 0.0934 0
M  V30 173 C 1.0245 1.2861 -0.0046 0
M  V30 174 C -0.1777 0.4029 0.1633 0
M  V30 175 C 0.2329 -0.9969 -0.1833 0
M  V30 176 H 2.0211 -1.6302 0.7534 0
M  V30 177 H 2.0909 -1.4782 -1.0757 0
M  V30 178 H 3.0198 0.6438 -0.6378 0
M  V30 179 H 2.6814 0.5009 1.0958 0
M  V30 180 H 1.0699 1.7812 -0.9887 0
M  V30 181 H 1.0284 2.0144 0.8462 0
M  V30 182 H -0.5346 0.3830 1.2242 0
M  V30 183 H -1.0126 0.7809 -0.4401 0
M  V30 184 H -0.1527 -1.2628 -1.2050 0
M  V30 185 H -0.2389 -1.7661 0.4901 0
M  V30 END ATOM
M  V30 BEGIN BOND
M  V30 1 1 1 2
M  V30 2 2 2 3
M  V30 3 1 3 4
M  V30 4 1 4 5
M  V30 5 2 4 6
M  V30 6 1 6 7
M  V30 7 1 7 8
M  V30 8 2 7 9
M  V30 9 1 9 2
M  V30 10 1 1 10
M  V30 11 1 3 11
M  V30 12 1 5 12
M  V30 13 1 6 13
M  V30 14 1 8 14
M  V30 15 1 9 15
M  V30 16 1 16 17
M  V30 17 2 17 18
M  V30 18 1 18 19
M  V30 19 1 19 20
M  V30 20 2 19 21
M  V30 21 1 21 22
M  V30 22 1 22 23
M  V30 23 2 22 24
M  V30 24 1 24 17
M  V30 25 1 16 25
M  V30 26 1 18 26
M  V30 27 1 20 27
M  V30 28 1 21 28
M  V30 29 1 23 29
M  V30 30 1 24 30
M  V30 31 1 31 32
M  V30 32 2 32 33
M  V30 33 1 33 34
M  V30 34 1 34 35
M  V30 35 2 34 36
M  V30 36 1 36 37
M  V30 37 1 37 38
M  V30 38 2 37 39
M  V30 39 1 39 32
M  V30 40 1 31 40
M  V30 41 1 33 41
M  V30 42 1 35 42
M  V30 43 1 36 43
M  V30 44 1 38 44
M  V30 45 1 39 45
M  V30 46 1 46 47
M  V30 47 2 47 48
M  V30 48 1 48 49
M  V30 49 1 49 50
M  V30 50 2 49 51
M  V30 51 1 51 52
M  V30 52 1 52 53
M  V30 53 2 52 54
M  V30 54 1 54 47
M  V30 55 1 46 55
M  V30 56 1 48 56
M  V30 57 1 50 57
M  V30 58 1 51 58
M  V30 59 1 53 59
M  V30 60 1 54 60
M  V30 61 1 61 62
M  V30 62 1 62 63
M  V30 63 1 63 64
M  V30 64 1 64 65
M  V30 65 1 65 66
M  V30 66 1 66 67
M  V30 67 1 67 68
M  V30 68 1 67 62
M  V30 69 1 62 69
M  V30 70 1 63 70
M  V30 71 1 63 71
M  V30 72 1 64 72
M  V30 73 1 64 73
M  V30 74 1 65 74
M  V30 75 1 65 75
M  V30 76 1 66 76
M  V30 77 1 66 77
M  V30 78 1 67 78
M  V30 79 1 79 80
M  V30 80 1 80 81
M  V30 81 1 81 82
M  V30 82 1 82 83
M  V30 83 1 83 84
M  V30 84 1 84 85
M  V30 85 1 85 86
M  V30 86 1 85 80
M  V30 87 1 80 87
M  V30 88 1 81 88
M  V30 89 1 81 89
M  V30 90 1 82 90
M  V30 91 1 82 91
M  V30 92 1 83 92
M  V30 93 1 83 93
M  V30 94 1 84 94
M  V30 95 1 84 95
M  V30 96 1 85 96
M  V30 97 1 97 98
M  V30 98 1 98 99
M  V30 99 1 99 100
M  V30 100 1 100 101
M  V30 101 1 101 102
M  V30 102 1 102 103
M  V30 103 1 103 104
M  V30 104 1 103 98
M  V30 105 1 98 105
M  V30 106 1 99 106
M  V30 107 1 99 107
M  V30 108 1 100 108
M  V30 109 1 100 109
M  V30 110 1 101 110
M  V30 111 1 101 111
M  V30 112 1 102 112
M  V30 113 1 102 113
M  V30 114 1 103 114
M  V30 115 1 115 116
M  V30 116 1 116 117
M  V30 117 1 117 118
M  V30 118 1 118 119
M  V30 119 1 119 120
M  V30 120 1 120 121
M  V30 121 1 121 122
M  V30 122 1 121 116
M  V30 123 1 116 123
M  V30 124 1 117 124
M  V30 125 1 117 125
M  V30 126 1 118 126
M  V30 127 1 118 127
M  V30 128 1 119 128
M  V30 129 1 119 129
M  V30 130 1 120 130
M  V30 131 1 120 131
M  V30 132 1 121 132
M  V30 133 1 133 134
M  V30 134 1 134 135
M  V30 135 1 135 136
M  V30 136 1 136 137
M  V30 137 1 137 138
M  V30 138 1 138 139
M  V30 139 1 139 140
M  V30 140 1 139 134
M  V30 141 1 134 141
M  V30 142 1 135 142
M  V30 143 1 135 143
M  V30 144 1 136 144
M  V30 145 1 136 145
M  V30 146 1 137 146
M  V30 147 1 137 147
M  V30 148 1 138 148
M  V30 149 1 138 149
M  V30 150 1 139 150
M  V30 151 1 151 152
M  V30 152 1 152 153
M  V30 153 1 153 154
M  V30 154 1 154 155
M  V30 155 1 155 156
M  V30 156 1 156 157
M  V30 157 1 157 158
M  V30 158 1 157 152
M  V30 159 1 152 159
M  V30 160 1 153 160
M  V30 161 1 153 161
M  V30 162 1 154 162
M  V30 163 1 154 163
M  V30 164 1 155 164
M  V30 165 1 155 165
M  V30 166 1 156 166
M  V30 167 1 156 167
M  V30 168 1 157 168
M  V30 169 2 1 61
M  V30 170 2 16 68
M  V30 171 2 8 79
M  V30 172 2 31 86
M  V30 173 2 5 97
M  V30 174 2 46 104
M  V30 175 2 20 115
M  V30 176 2 38 122
M  V30 177 2 23 133
M  V30 178 2 50 140
M  V30 179 2 35 151
M  V30 180 2 53 158
M  V30 181 1 169 170
M  V30 182 1 171 172
M  V30 183 1 172 173
M  V30 184 1 173 174
M  V30 185 1 174 175
M  V30 186 1 175 171
M  V30 187 1 171 176
M  V30 188 1 171 177
M  V30 189 1 172 178
M  V30 190 1 172 179
M  V30 191 1 173 180
M  V30 192 1 173 181
M  V30 193 1 174 182
M  V30 194 1 174 183
M  V30 195 1 175 184
M  V30 196 1 175 185
M  V30 END BOND
M  V30 END CTAB
M  END

$$$$
