
     RDKit          3D

  0  0  0  0  0  0  0  0  0  0999 V3000
M  V30 BEGIN CTAB
M  V30 COUNTS 80 82 0 0 0
M  V30 BEGIN ATOM
M  V30 1 C -1.6965 -0.4159 2.8912 0
M  V30 2 C -0.3461 -0.2185 3.5229 0
M  V30 3 C 0.6564 -1.1785 2.9387 0
M  V30 4 C 0.1315 1.2128 3.4897 0
M  V30 5 H -1.8708 -0.0947 1.8774 0
M  V30 6 H -0.4386 -0.4966 4.5974 0
M  V30 7 H 0.3629 -1.8765 2.1571 0
M  V30 8 H 1.0385 1.4560 4.0397 0
M  V30 9 C -3.1907 -1.7471 0.0630 0
M  V30 10 C -3.5749 -1.4480 -1.3589 0
M  V30 11 C -3.7546 0.0318 -1.5588 0
M  V30 12 C -2.5790 -2.0364 -2.3235 0
M  V30 13 H -2.2025 -1.5057 0.4146 0
M  V30 14 H -4.5708 -1.9133 -1.5421 0
M  V30 15 H -3.5002 0.7323 -0.7659 0
M  V30 16 H -2.0855 -1.4067 -3.0601 0
M  V30 17 C 2.4109 -1.5954 0.0827 0
M  V30 18 C 2.1916 -2.0383 -1.3439 0
M  V30 19 C 0.8509 -2.7022 -1.5300 0
M  V30 20 C 2.3894 -0.9297 -2.3429 0
M  V30 21 H 1.7855 -0.8258 0.5224 0
M  V30 22 H 2.9786 -2.7855 -1.6001 0
M  V30 23 H -0.0633 -2.1891 -1.2551 0
M  V30 24 H 2.3469 -1.1958 -3.3976 0
M  V30 25 C -0.8006 3.4261 -0.0177 0
M  V30 26 C -0.3310 3.6398 -1.4327 0
M  V30 27 C 0.8574 2.7787 -1.7205 0
M  V30 28 C -1.3608 3.3718 -2.4956 0
M  V30 29 H -1.1502 2.4537 0.3189 0
M  V30 30 H -0.0390 4.7115 -1.5296 0
M  V30 31 H 0.7139 1.7056 -1.7501 0
M  V30 32 H -1.0890 3.6270 -3.5189 0
M  V30 33 N -2.6055 -1.0008 3.5866 0
M  V30 34 C -3.9359 -1.3700 3.1579 0
M  V30 35 C -3.9542 -2.6063 2.2311 0
M  V30 36 N -4.0777 -2.2805 0.8269 0
M  V30 37 H -4.5246 -0.5126 2.7658 0
M  V30 38 H -4.4376 -1.6948 4.0951 0
M  V30 39 H -3.1245 -3.3164 2.4389 0
M  V30 40 H -4.8973 -3.1452 2.4665 0
M  V30 41 N 1.8189 -1.2515 3.4788 0
M  V30 42 C 2.8278 -2.2392 3.1627 0
M  V30 43 C 3.8140 -1.7905 2.0780 0
M  V30 44 N 3.3934 -2.1123 0.7313 0
M  V30 45 H 2.3955 -3.2448 2.9642 0
M  V30 46 H 3.4218 -2.3390 4.0962 0
M  V30 47 H 4.0940 -0.7203 2.1848 0
M  V30 48 H 4.7365 -2.3888 2.2379 0
M  V30 49 N -0.5337 2.1460 2.9006 0
M  V30 50 C -0.1370 3.5310 3.0144 0
M  V30 51 C -1.0562 4.4384 2.1930 0
M  V30 52 N -0.7212 4.4287 0.7869 0
M  V30 53 H 0.9234 3.6811 2.7097 0
M  V30 54 H -0.2374 3.8184 4.0844 0
M  V30 55 H -2.1279 4.1990 2.3621 0
M  V30 56 H -0.8811 5.4789 2.5414 0
M  V30 57 N -2.3266 -3.2959 -2.2652 0
M  V30 58 C -1.4313 -4.0010 -3.1560 0
M  V30 59 C -0.3208 -4.7027 -2.3611 0
M  V30 60 N 0.8320 -3.8682 -2.0800 0
M  V30 61 H -1.0098 -3.3604 -3.9630 0
M  V30 62 H -2.0465 -4.7897 -3.6396 0
M  V30 63 H -0.7284 -5.1552 -1.4319 0
M  V30 64 H 0.0637 -5.5348 -2.9892 0
M  V30 65 N -4.3418 0.4430 -2.6274 0
M  V30 66 C -4.6646 1.8270 -2.8992 0
M  V30 67 C -3.4403 2.6247 -3.3391 0
M  V30 68 N -2.5044 2.8298 -2.2558 0
M  V30 69 H -5.1807 2.2972 -2.0333 0
M  V30 70 H -5.3725 1.8304 -3.7550 0
M  V30 71 H -2.9511 2.0818 -4.1798 0
M  V30 72 H -3.7748 3.6189 -3.7083 0
M  V30 73 N 2.6882 0.2749 -1.9965 0
M  V30 74 C 3.0127 1.2668 -2.9979 0
M  V30 75 C 3.2185 2.6574 -2.3815 0
M  V30 76 N 1.9969 3.3292 -1.9666 0
M  V30 77 H 2.2237 1.3219 -3.7809 0
M  V30 78 H 3.9645 0.9579 -3.4843 0
M  V30 79 H 3.9524 2.6361 -1.5482 0
M  V30 80 H 3.6543 3.2859 -3.1869 0
M  V30 END ATOM
M  V30 BEGIN BOND
M  V30 1 1 1 2
M  V30 2 1 2 3
M  V30 3 1 2 4
M  V30 4 1 1 5
M  V30 5 1 2 6
M  V30 6 1 3 7
M  V30 7 1 4 8
M  V30 8 1 9 10
M  V30 9 1 10 11
M  V30 10 1 10 12
M  V30 11 1 9 13
M  V30 12 1 10 14
M  V30 13 1 11 15
M  V30 14 1 12 16
M  V30 15 1 17 18
M  V30 16 1 18 19
M  V30 17 1 18 20
M  V30 18 1 17 21
M  V30 19 1 18 22
M  V30 20 1 19 23
M  V30 21 1 20 24
M  V30 22 1 25 26
M  V30 23 1 26 27
M  V30 24 1 26 28
M  V30 25 1 25 29
M  V30 26 1 26 30
M  V30 27 1 27 31
M  V30 28 1 28 32
M  V30 29 1 33 34
M  V30 30 1 34 35
M  V30 31 1 35 36
M  V30 32 1 34 37
M  V30 33 1 34 38
M  V30 34 1 35 39
M  V30 35 1 35 40
M  V30 36 1 41 42
M  V30 37 1 42 43
M  V30 38 1 43 44
M  V30 39 1 42 45
M  V30 40 1 42 46
M  V30 41 1 43 47
M  V30 42 1 43 48
M  V30 43 1 49 50
M  V30 44 1 50 51
M  V30 45 1 51 52
M  V30 46 1 50 53
M  V30 47 1 50 54
M  V30 48 1 51 55
M  V30 49 1 51 56
M  V30 50 1 57 58
M  V30 51 1 58 59
M  V30 52 1 59 60
M  V30 53 1 58 61
M  V30 54 1 58 62
M  V30 55 1 59 63
M  V30 56 1 59 64
M  V30 57 1 65 66
M  V30 58 1 66 67
M  V30 59 1 67 68
M  V30 60 1 66 69
M  V30 61 1 66 70
M  V30 62 1 67 71
M  V30 63 1 67 72
M  V30 64 1 73 74
M  V30 65 1 74 75
M  V30 66 1 75 76
M  V30 67 1 74 77
M  V30 68 1 74 78
M  V30 69 1 75 79
M  V30 70 1 75 80
M  V30 71 2 1 33
M  V30 72 2 9 36
M  V30 73 2 3 41
M  V30 74 2 17 44
M  V30 75 2 4 49
M  V30 76 2 25 52
M  V30 77 2 12 57
M  V30 78 2 19 60
M  V30 79 2 11 65
M  V30 80 2 28 68
M  V30 81 2 20 73
M  V30 82 2 27 76
M  V30 END BOND
M  V30 END CTAB
M  END

$$$$
