
     RDKit          3D

  0  0  0  0  0  0  0  0  0  0999 V3000
M  V30 BEGIN CTAB
M  V30 COUNTS 43 48 0 0 0
M  V30 BEGIN ATOM
M  V30 1 Fe -0.1494 0.3578 0.1840 0 CHG=2
M  V30 2 C -1.1616 2.7561 0.0489 0
M  V30 3 N -0.1490 1.8723 0.1380 0
M  V30 4 C 1.1393 2.4714 0.1277 0
M  V30 5 C 2.0128 1.4522 0.1952 0
M  V30 6 N 1.3409 0.3574 0.2130 0
M  V30 7 Br 2.5783 -1.1293 0.3461 0
M  V30 8 C 1.4197 3.7813 0.0583 0
M  V30 9 C 0.2987 4.7204 -0.0156 0
M  V30 10 C -0.9420 4.2299 -0.0193 0
M  V30 11 H -2.2136 2.5157 0.0351 0
M  V30 12 H 3.0941 1.5324 0.2230 0
M  V30 13 H 2.4444 4.1409 0.0529 0
M  V30 14 H 0.4760 5.7900 -0.0685 0
M  V30 15 H -1.7908 4.9045 -0.0741 0
M  V30 16 C -0.0295 1.3747 2.5795 0
M  V30 17 N -0.1017 0.3596 1.6982 0
M  V30 18 C -0.0793 -0.9281 2.2994 0
M  V30 19 C -0.1521 -1.8032 1.2831 0
M  V30 20 N -0.1817 -1.1325 0.1885 0
M  V30 21 Br -0.3524 -2.3707 -1.2927 0
M  V30 22 C -0.0082 -1.2067 3.6089 0
M  V30 23 C 0.0482 -0.0840 4.5464 0
M  V30 24 C 0.0349 1.1566 4.0546 0
M  V30 25 H -0.0293 2.4261 2.3353 0
M  V30 26 H -0.1837 -2.8843 1.3649 0
M  V30 27 H 0.0031 -2.2315 3.9689 0
M  V30 28 H 0.0966 -0.2610 5.6162 0
M  V30 29 H 0.0713 2.0060 4.7295 0
M  V30 30 C -2.5422 0.2231 1.2006 0
M  V30 31 N -1.6625 0.3169 0.1861 0
M  V30 32 C -2.2644 0.3238 -1.1016 0
M  V30 33 C -1.2451 0.3841 -1.9770 0
M  V30 34 N -0.1497 0.3838 -1.3058 0
M  V30 35 Br 1.3408 0.4814 -2.5416 0
M  V30 36 C -3.5757 0.2737 -1.3781 0
M  V30 37 C -4.5116 0.2030 -0.2538 0
M  V30 38 C -4.0171 0.1777 0.9854 0
M  V30 39 H -2.2968 0.1937 2.2512 0
M  V30 40 H -1.3248 0.4123 -3.0582 0
M  V30 41 H -3.9384 0.2820 -2.4016 0
M  V30 42 H -5.5823 0.1689 -0.4274 0
M  V30 43 H -4.6891 0.1251 1.8363 0
M  V30 END ATOM
M  V30 BEGIN BOND
M  V30 1 2 2 3
M  V30 2 1 3 4
M  V30 3 1 4 5
M  V30 4 2 5 6
M  V30 5 1 6 7
M  V30 6 2 4 8
M  V30 7 1 8 9
M  V30 8 2 9 10
M  V30 9 1 10 2
M  V30 10 1 2 11
M  V30 11 1 5 12
M  V30 12 1 8 13
M  V30 13 1 9 14
M  V30 14 1 10 15
M  V30 15 2 16 17
M  V30 16 1 17 18
M  V30 17 1 18 19
M  V30 18 2 19 20
M  V30 19 1 20 21
M  V30 20 2 18 22
M  V30 21 1 22 23
M  V30 22 2 23 24
M  V30 23 1 24 16
M  V30 24 1 16 25
M  V30 25 1 19 26
M  V30 26 1 22 27
M  V30 27 1 23 28
M  V30 28 1 24 29
M  V30 29 2 30 31
M  V30 30 1 31 32
M  V30 31 1 32 33
M  V30 32 2 33 34
M  V30 33 1 34 35
M  V30 34 2 32 36
M  V30 35 1 36 37
M  V30 36 2 37 38
M  V30 37 1 38 30
M  V30 38 1 30 39
M  V30 39 1 33 40
M  V30 40 1 36 41
M  V30 41 1 37 42
M  V30 42 1 38 43
M  V30 43 9 6 1
M  V30 44 9 3 1
M  V30 45 9 20 1
M  V30 46 9 17 1
M  V30 47 9 34 1
M  V30 48 9 31 1
M  V30 END BOND
M  V30 END CTAB
M  END

$$$$
