
     RDKit          3D

  0  0  0  0  0  0  0  0  0  0999 V3000
M  V30 BEGIN CTAB
M  V30 COUNTS 11 10 0 0 0
M  V30 BEGIN ATOM
M  V30 1 O -0.8063 1.2540 -1.8876 0
M  V30 2 C -0.4016 1.1017 -0.7496 0
M  V30 3 C -0.0421 -0.2542 -0.2580 0
M  V30 4 C 1.4020 -0.2773 0.1508 0
M  V30 5 O 2.2028 -1.0336 -0.3840 0
M  V30 6 C -0.9330 -0.6613 0.8358 0
M  V30 7 O -1.8128 0.0967 1.2041 0
M  V30 8 H -0.3151 1.9723 -0.1221 0
M  V30 9 H -0.1645 -0.9887 -1.0826 0
M  V30 10 H 1.7282 0.4029 0.9450 0
M  V30 11 H -0.8577 -1.6124 1.3483 0
M  V30 END ATOM
M  V30 BEGIN BOND
M  V30 1 2 1 2
M  V30 2 1 2 3
M  V30 3 1 3 4
M  V30 4 2 4 5
M  V30 5 1 3 6
M  V30 6 2 6 7
M  V30 7 1 2 8
M  V30 8 1 3 9
M  V30 9 1 4 10
M  V30 10 1 6 11
M  V30 END BOND
M  V30 END CTAB
M  END

$$$$
