
     RDKit          3D

  0  0  0  0  0  0  0  0  0  0999 V3000
M  V30 BEGIN CTAB
M  V30 COUNTS 44 43 0 0 0
M  V30 BEGIN ATOM
M  V30 1 Br 5.5760 1.7054 -0.2584 0
M  V30 2 C 6.2114 -0.0664 0.2065 0
M  V30 3 C 7.5881 -0.4447 -0.3934 0
M  V30 4 H 5.4328 -0.7973 -0.1228 0
M  V30 5 H 6.2471 -0.1351 1.3203 0
M  V30 6 H 7.5150 -0.4869 -1.5023 0
M  V30 7 H 7.7640 -1.4714 -0.0223 0
M  V30 8 C 12.5008 -0.7099 0.1145 0
M  V30 9 C 13.8977 -0.2852 -0.5241 0
M  V30 10 H 12.3986 -1.8227 0.1396 0
M  V30 11 H 12.5306 -0.3523 1.1594 0
M  V30 12 H 13.9675 0.8063 -0.3546 0
M  V30 13 H 13.9025 -0.4626 -1.6222 0
M  V30 14 C 19.0390 -0.3596 0.3196 0
M  V30 15 C 20.3210 -0.3082 -0.6005 0
M  V30 16 H 19.1238 -1.1658 1.0826 0
M  V30 17 H 18.9982 0.6134 0.8530 0
M  V30 18 H 20.0425 0.4386 -1.3677 0
M  V30 19 H 20.4988 -1.2639 -1.1401 0
M  V30 20 C 8.7510 0.4913 0.0505 0
M  V30 21 N 10.0161 -0.2268 0.3680 0
M  V30 22 C 11.1725 -0.1142 -0.5637 0
M  V30 23 H 8.8745 1.3304 -0.6709 0
M  V30 24 H 8.4326 0.9701 1.0010 0
M  V30 25 H 9.8660 -1.1647 0.8001 0
M  V30 26 H 11.3411 0.9457 -0.8047 0
M  V30 27 H 10.9685 -0.6710 -1.4919 0
M  V30 28 C 15.1842 -0.9963 0.1013 0
M  V30 29 N 16.4258 -0.1494 0.1542 0
M  V30 30 C 17.7032 -0.5013 -0.5461 0
M  V30 31 H 15.3668 -1.9671 -0.4122 0
M  V30 32 H 14.9487 -1.2485 1.1566 0
M  V30 33 H 16.5341 0.4165 1.0272 0
M  V30 34 H 17.7957 0.2513 -1.3573 0
M  V30 35 H 17.6525 -1.4946 -1.0351 0
M  V30 36 C 21.6847 0.2834 -0.0729 0
M  V30 37 N 22.6734 -0.6741 0.4985 0
M  V30 38 C 24.0601 -0.1997 0.2716 0
M  V30 39 Br 24.4366 1.5183 1.1006 0
M  V30 40 H 22.1576 0.7373 -0.9709 0
M  V30 41 H 21.5110 1.1208 0.6349 0
M  V30 42 H 22.6063 -1.5781 -0.0201 0
M  V30 43 H 24.2878 -0.1211 -0.8184 0
M  V30 44 H 24.7958 -0.9312 0.6870 0
M  V30 END ATOM
M  V30 BEGIN BOND
M  V30 1 1 1 2
M  V30 2 1 2 3
M  V30 3 1 2 4
M  V30 4 1 2 5
M  V30 5 1 3 6
M  V30 6 1 3 7
M  V30 7 1 8 9
M  V30 8 1 8 10
M  V30 9 1 8 11
M  V30 10 1 9 12
M  V30 11 1 9 13
M  V30 12 1 14 15
M  V30 13 1 14 16
M  V30 14 1 14 17
M  V30 15 1 15 18
M  V30 16 1 15 19
M  V30 17 1 20 21
M  V30 18 1 21 22
M  V30 19 1 20 23
M  V30 20 1 20 24
M  V30 21 1 21 25
M  V30 22 1 22 26
M  V30 23 1 22 27
M  V30 24 1 28 29
M  V30 25 1 29 30
M  V30 26 1 28 31
M  V30 27 1 28 32
M  V30 28 1 29 33
M  V30 29 1 30 34
M  V30 30 1 30 35
M  V30 31 1 36 37
M  V30 32 1 37 38
M  V30 33 1 38 39
M  V30 34 1 36 40
M  V30 35 1 36 41
M  V30 36 1 37 42
M  V30 37 1 38 43
M  V30 38 1 38 44
M  V30 39 1 3 20
M  V30 40 1 8 22
M  V30 41 1 9 28
M  V30 42 1 14 30
M  V30 43 1 15 36
M  V30 END BOND
M  V30 END CTAB
M  END

$$$$
