
     RDKit          3D

  0  0  0  0  0  0  0  0  0  0999 V3000
M  V30 BEGIN CTAB
M  V30 COUNTS 92 91 0 0 0
M  V30 BEGIN ATOM
M  V30 1 Br -8.8692 1.7690 -1.1062 0
M  V30 2 C -8.6518 0.3576 0.2102 0
M  V30 3 C -7.3480 -0.4222 0.0220 0
M  V30 4 H -9.5087 -0.3410 0.0994 0
M  V30 5 H -8.6901 0.7967 1.2295 0
M  V30 6 H -7.3435 -0.8865 -0.9884 0
M  V30 7 H -7.3200 -1.2349 0.7805 0
M  V30 8 C -2.4411 -0.4276 0.1960 0
M  V30 9 C -1.1163 0.3531 -0.0369 0
M  V30 10 H -2.5397 -1.2608 -0.5143 0
M  V30 11 H -2.4975 -0.8488 1.2196 0
M  V30 12 H -1.1787 1.2485 0.5528 0
M  V30 13 H -1.1754 0.6427 -1.0576 0
M  V30 14 C 3.9830 0.3161 0.2420 0
M  V30 15 C 5.1892 -0.1685 -0.5673 0
M  V30 16 H 4.0761 -0.0769 1.2791 0
M  V30 17 H 3.9807 1.4279 0.2813 0
M  V30 18 H 5.1371 0.2456 -1.5982 0
M  V30 19 H 5.1725 -1.2792 -0.6249 0
M  V30 20 C -6.0986 0.4581 0.1878 0
M  V30 21 N -4.8872 -0.3659 0.1031 0
M  V30 22 C -3.6761 0.4615 0.0065 0
M  V30 23 H -6.0908 1.2405 -0.6023 0
M  V30 24 H -6.1265 0.9510 1.1852 0
M  V30 25 H -4.9316 -0.9630 -0.7569 0
M  V30 26 H -3.6725 1.2471 0.7953 0
M  V30 27 H -3.6434 0.9528 -0.9922 0
M  V30 28 C 0.2224 -0.3938 0.2911 0
M  V30 29 N 1.5213 0.3146 0.4550 0
M  V30 30 C 2.6537 -0.1736 -0.3573 0
M  V30 31 H 0.3784 -1.1765 -0.3762 0
M  V30 32 H 0.0047 -0.8275 1.2239 0
M  V30 33 H 1.8425 0.0669 1.4098 0
M  V30 34 H 2.5978 0.2213 -1.3830 0
M  V30 35 H 2.6803 -1.2811 -0.3770 0
M  V30 36 C 6.4912 0.2770 0.1051 0
M  V30 37 N 7.6513 -0.1782 -0.6727 0
M  V30 38 C 8.9107 0.2010 -0.0226 0
M  V30 39 Br 9.2089 2.1191 -0.1112 0
M  V30 40 H 6.4918 1.3869 0.1736 0
M  V30 41 H 6.5331 -0.1473 1.1346 0
M  V30 42 H 7.6240 -1.2244 -0.7163 0
M  V30 43 H 9.7549 -0.2815 -0.5597 0
M  V30 44 H 8.9359 -0.1434 1.0349 0
M  V30 45 C -0.4734 0.6860 3.1552 0
M  V30 46 C 0.4029 -0.5727 3.6276 0
M  V30 47 H -1.1837 0.9578 3.9651 0
M  V30 48 H -1.1861 0.3411 2.4312 0
M  V30 49 H 0.4284 -0.4470 4.7325 0
M  V30 50 H 1.4698 -0.4503 3.3744 0
M  V30 51 C -0.5480 3.1434 1.9112 0
M  V30 52 C 0.2886 2.0178 2.6663 0
M  V30 53 H -0.5312 3.9711 2.6546 0
M  V30 54 H -1.6316 2.9028 1.8748 0
M  V30 55 H 0.7660 2.4559 3.5708 0
M  V30 56 H 1.1692 1.8837 2.0540 0
M  V30 57 C -0.4633 3.4064 -0.9566 0
M  V30 58 C -0.0529 3.8526 0.5374 0
M  V30 59 H -0.5285 4.3182 -1.5905 0
M  V30 60 H -1.4931 3.0000 -0.9071 0
M  V30 61 H -0.6141 4.8114 0.6065 0
M  V30 62 H 1.0157 4.1494 0.5903 0
M  V30 63 C -0.0840 1.6415 -3.0202 0
M  V30 64 C 0.4978 2.4635 -1.7677 0
M  V30 65 H 0.0002 2.2042 -3.9729 0
M  V30 66 H -1.1742 1.5076 -2.8859 0
M  V30 67 H 1.4742 2.9357 -2.0055 0
M  V30 68 H 0.7435 1.7632 -1.0213 0
M  V30 69 C -0.1485 -1.0587 -3.7230 0
M  V30 70 C 0.5622 0.1913 -3.0841 0
M  V30 71 H 0.0762 -1.0110 -4.8091 0
M  V30 72 H -1.2522 -1.0102 -3.6051 0
M  V30 73 H 1.6219 0.2465 -3.4091 0
M  V30 74 H 0.5843 -0.1160 -2.0782 0
M  V30 75 C -0.4467 -2.9847 -1.8338 0
M  V30 76 C 0.3545 -2.4584 -3.1031 0
M  V30 77 H -1.2915 -3.6468 -2.1196 0
M  V30 78 H -0.9782 -2.0986 -1.5214 0
M  V30 79 H 0.2539 -3.2595 -3.8653 0
M  V30 80 H 1.4411 -2.3644 -2.8910 0
M  V30 81 C -0.3787 -3.3405 0.8325 0
M  V30 82 C 0.3603 -3.5628 -0.5765 0
M  V30 83 H -1.0784 -4.1699 1.0657 0
M  V30 84 H -1.0735 -2.5201 0.7091 0
M  V30 85 H 0.7123 -4.6057 -0.7175 0
M  V30 86 H 1.3033 -2.9954 -0.5345 0
M  V30 87 C -0.0056 -2.1257 3.3397 0
M  V30 88 C 0.5620 -2.9735 2.0747 0
M  V30 89 H 0.5636 -2.6132 4.1621 0
M  V30 90 H -1.0641 -2.3595 3.5773 0
M  V30 91 H 0.9276 -3.9611 2.4316 0
M  V30 92 H 1.4815 -2.4482 1.7414 0
M  V30 END ATOM
M  V30 BEGIN BOND
M  V30 1 1 1 2
M  V30 2 1 2 3
M  V30 3 1 2 4
M  V30 4 1 2 5
M  V30 5 1 3 6
M  V30 6 1 3 7
M  V30 7 1 8 9
M  V30 8 1 8 10
M  V30 9 1 8 11
M  V30 10 1 9 12
M  V30 11 1 9 13
M  V30 12 1 14 15
M  V30 13 1 14 16
M  V30 14 1 14 17
M  V30 15 1 15 18
M  V30 16 1 15 19
M  V30 17 1 20 21
M  V30 18 1 21 22
M  V30 19 1 20 23
M  V30 20 1 20 24
M  V30 21 1 21 25
M  V30 22 1 22 26
M  V30 23 1 22 27
M  V30 24 1 28 29
M  V30 25 1 29 30
M  V30 26 1 28 31
M  V30 27 1 28 32
M  V30 28 1 29 33
M  V30 29 1 30 34
M  V30 30 1 30 35
M  V30 31 1 36 37
M  V30 32 1 37 38
M  V30 33 1 38 39
M  V30 34 1 36 40
M  V30 35 1 36 41
M  V30 36 1 37 42
M  V30 37 1 38 43
M  V30 38 1 38 44
M  V30 39 1 3 20
M  V30 40 1 8 22
M  V30 41 1 9 28
M  V30 42 1 14 30
M  V30 43 1 15 36
M  V30 44 1 45 46
M  V30 45 1 45 47
M  V30 46 1 45 48
M  V30 47 1 46 49
M  V30 48 1 46 50
M  V30 49 1 51 52
M  V30 50 1 51 53
M  V30 51 1 51 54
M  V30 52 1 52 55
M  V30 53 1 52 56
M  V30 54 1 57 58
M  V30 55 1 57 59
M  V30 56 1 57 60
M  V30 57 1 58 61
M  V30 58 1 58 62
M  V30 59 1 63 64
M  V30 60 1 63 65
M  V30 61 1 63 66
M  V30 62 1 64 67
M  V30 63 1 64 68
M  V30 64 1 69 70
M  V30 65 1 69 71
M  V30 66 1 69 72
M  V30 67 1 70 73
M  V30 68 1 70 74
M  V30 69 1 75 76
M  V30 70 1 75 77
M  V30 71 1 75 78
M  V30 72 1 76 79
M  V30 73 1 76 80
M  V30 74 1 81 82
M  V30 75 1 81 83
M  V30 76 1 81 84
M  V30 77 1 82 85
M  V30 78 1 82 86
M  V30 79 1 87 88
M  V30 80 1 87 89
M  V30 81 1 87 90
M  V30 82 1 88 91
M  V30 83 1 88 92
M  V30 84 1 45 52
M  V30 85 1 51 58
M  V30 86 1 57 64
M  V30 87 1 63 70
M  V30 88 1 69 76
M  V30 89 1 75 82
M  V30 90 1 81 88
M  V30 91 1 46 87
M  V30 END BOND
M  V30 END CTAB
M  END

$$$$
