
     RDKit          3D

  0  0  0  0  0  0  0  0  0  0999 V3000
M  V30 BEGIN CTAB
M  V30 COUNTS 80 82 0 0 0
M  V30 BEGIN ATOM
M  V30 1 C -1.6105 -0.8155 4.0274 0
M  V30 2 C -0.3946 -0.0955 4.4885 0
M  V30 3 C 0.8319 -0.8277 4.0274 0
M  V30 4 C -0.4126 1.2984 4.0274 0
M  V30 5 H -1.8077 -0.9810 2.9820 0
M  V30 6 H -0.3743 -0.0821 5.5993 0
M  V30 7 H 0.9808 -0.9657 2.9511 0
M  V30 8 H 0.3725 2.0121 4.2446 0
M  V30 9 C -4.3414 -1.8986 -0.2503 0
M  V30 10 C -4.3022 -1.8940 -1.7361 0
M  V30 11 C -4.3485 -0.4803 -2.2387 0
M  V30 12 C -3.1210 -2.6162 -2.2249 0
M  V30 13 H -3.5834 -1.4093 0.3372 0
M  V30 14 H -5.2014 -2.4147 -2.1293 0
M  V30 15 H -3.5493 0.2050 -1.9365 0
M  V30 16 H -2.8862 -2.7412 -3.2748 0
M  V30 17 C 2.8412 -2.3916 -0.1476 0
M  V30 18 C 2.8176 -2.3599 -1.6334 0
M  V30 19 C 1.6165 -3.1068 -2.1360 0
M  V30 20 C 2.8524 -0.9758 -2.1222 0
M  V30 21 H 2.0384 -1.9797 0.4399 0
M  V30 22 H 3.7182 -2.8783 -2.0266 0
M  V30 23 H 0.6233 -2.7574 -1.8338 0
M  V30 24 H 2.8433 -0.7100 -3.1721 0
M  V30 25 C -0.4538 4.4307 -0.1493 0
M  V30 26 C -0.4694 4.3945 -1.6351 0
M  V30 27 C 0.7779 3.7277 -2.1377 0
M  V30 28 C -1.6855 3.7326 -2.1239 0
M  V30 29 H -0.4091 3.5296 0.4382 0
M  V30 30 H -0.4708 5.4336 -2.0283 0
M  V30 31 H 0.9719 2.6930 -1.8355 0
M  V30 32 H -1.9111 3.5918 -3.1738 0
M  V30 33 N -2.9862 -1.6005 3.6815 0
M  V30 34 C -4.3735 -1.9741 3.7045 0
M  V30 35 C -4.6974 -2.9507 2.5776 0
M  V30 36 N -4.4492 -2.4452 1.2924 0
M  V30 37 H -5.0161 -1.0728 3.6275 0
M  V30 38 H -4.5468 -2.5258 4.6535 0
M  V30 39 H -4.0072 -3.8259 2.7508 0
M  V30 40 H -5.7387 -3.2944 2.6836 0
M  V30 41 N 2.2371 -1.5043 3.6741 0
M  V30 42 C 3.2540 -2.5192 3.6970 0
M  V30 43 C 4.2619 -2.3115 2.5703 0
M  V30 44 N 3.7001 -2.3490 1.2850 0
M  V30 45 H 2.7946 -3.5262 3.6199 0
M  V30 46 H 3.8185 -2.3937 4.6461 0
M  V30 47 H 4.6749 -1.2762 2.7436 0
M  V30 48 H 5.0800 -3.0415 2.6762 0
M  V30 49 N -0.1216 3.1157 3.7027 0
M  V30 50 C 0.2470 4.5044 3.7260 0
M  V30 51 C -0.4368 5.2724 2.5985 0
M  V30 52 N -0.1216 4.8051 1.3136 0
M  V30 53 H 1.3488 4.6115 3.6499 0
M  V30 54 H -0.1454 4.9299 4.6747 0
M  V30 55 H -1.5398 5.1111 2.7708 0
M  V30 56 H -0.2151 6.3463 2.7047 0
M  V30 57 N -2.5427 -4.0246 -2.7954 0
M  V30 58 C -1.7600 -4.7488 -3.7585 0
M  V30 59 C -0.3960 -5.1239 -3.1864 0
M  V30 60 N 0.3833 -4.0246 -2.7954 0
M  V30 61 H -1.6360 -4.1484 -4.6834 0
M  V30 62 H -2.2889 -5.7063 -3.9547 0
M  V30 63 H -0.6299 -5.7342 -2.2670 0
M  V30 64 H 0.1373 -5.7621 -3.9088 0
M  V30 65 N -4.5614 0.7324 -3.0466 0
M  V30 66 C -5.1665 1.9856 -3.4046 0
M  V30 67 C -4.1272 2.9605 -3.9504 0
M  V30 68 N -3.0984 3.2664 -3.0466 0
M  V30 69 H -5.6839 2.4275 -2.5281 0
M  V30 70 H -5.8700 1.7810 -4.2403 0
M  V30 71 H -3.6721 2.4278 -4.8344 0
M  V30 72 H -4.6357 3.8699 -4.3083 0
M  V30 73 N 3.7625 0.6027 -2.5113 0
M  V30 74 C 3.9983 1.6426 -3.4744 0
M  V30 75 C 3.6413 3.0114 -2.9023 0
M  V30 76 N 2.2995 3.1367 -2.5113 0
M  V30 77 H 3.4164 1.4498 -4.3993 0
M  V30 78 H 5.0921 1.6633 -3.6706 0
M  V30 79 H 4.2867 3.1140 -1.9829 0
M  V30 80 H 3.9273 3.7924 -3.6247 0
M  V30 END ATOM
M  V30 BEGIN BOND
M  V30 1 1 1 2
M  V30 2 1 2 3
M  V30 3 1 2 4
M  V30 4 1 1 5
M  V30 5 1 2 6
M  V30 6 1 3 7
M  V30 7 1 4 8
M  V30 8 1 9 10
M  V30 9 1 10 11
M  V30 10 1 10 12
M  V30 11 1 9 13
M  V30 12 1 10 14
M  V30 13 1 11 15
M  V30 14 1 12 16
M  V30 15 1 17 18
M  V30 16 1 18 19
M  V30 17 1 18 20
M  V30 18 1 17 21
M  V30 19 1 18 22
M  V30 20 1 19 23
M  V30 21 1 20 24
M  V30 22 1 25 26
M  V30 23 1 26 27
M  V30 24 1 26 28
M  V30 25 1 25 29
M  V30 26 1 26 30
M  V30 27 1 27 31
M  V30 28 1 28 32
M  V30 29 1 33 34
M  V30 30 1 34 35
M  V30 31 1 35 36
M  V30 32 1 34 37
M  V30 33 1 34 38
M  V30 34 1 35 39
M  V30 35 1 35 40
M  V30 36 1 41 42
M  V30 37 1 42 43
M  V30 38 1 43 44
M  V30 39 1 42 45
M  V30 40 1 42 46
M  V30 41 1 43 47
M  V30 42 1 43 48
M  V30 43 1 49 50
M  V30 44 1 50 51
M  V30 45 1 51 52
M  V30 46 1 50 53
M  V30 47 1 50 54
M  V30 48 1 51 55
M  V30 49 1 51 56
M  V30 50 1 57 58
M  V30 51 1 58 59
M  V30 52 1 59 60
M  V30 53 1 58 61
M  V30 54 1 58 62
M  V30 55 1 59 63
M  V30 56 1 59 64
M  V30 57 1 65 66
M  V30 58 1 66 67
M  V30 59 1 67 68
M  V30 60 1 66 69
M  V30 61 1 66 70
M  V30 62 1 67 71
M  V30 63 1 67 72
M  V30 64 1 73 74
M  V30 65 1 74 75
M  V30 66 1 75 76
M  V30 67 1 74 77
M  V30 68 1 74 78
M  V30 69 1 75 79
M  V30 70 1 75 80
M  V30 71 2 1 33
M  V30 72 2 9 36
M  V30 73 2 3 41
M  V30 74 2 17 44
M  V30 75 2 4 49
M  V30 76 2 25 52
M  V30 77 2 12 57
M  V30 78 2 19 60
M  V30 79 2 11 65
M  V30 80 2 28 68
M  V30 81 2 20 73
M  V30 82 2 27 76
M  V30 END BOND
M  V30 END CTAB
M  END

$$$$
