
     RDKit          3D

  0  0  0  0  0  0  0  0  0  0999 V3000
M  V30 BEGIN CTAB
M  V30 COUNTS 92 91 0 0 0
M  V30 BEGIN ATOM
M  V30 1 Br -12.3465 2.0948 0.0521 0
M  V30 2 C -11.8074 0.2181 0.0484 0
M  V30 3 C -10.2726 0.2181 0.0484 0
M  V30 4 H -12.2184 -0.2836 -0.8328 0
M  V30 5 H -12.1910 -0.2011 0.9990 0
M  V30 6 H -9.8878 0.8410 -0.7835 0
M  V30 7 H -9.8738 -0.8094 0.0295 0
M  V30 8 C -3.1854 0.2342 0.0550 0
M  V30 9 C -1.6507 0.2342 0.0550 0
M  V30 10 H -3.5965 -0.2675 -0.8262 0
M  V30 11 H -3.5691 -0.1849 1.0056 0
M  V30 12 H -1.2659 0.8571 -0.7769 0
M  V30 13 H -1.2518 -0.7932 0.0361 0
M  V30 14 C 5.4335 0.2367 0.0521 0
M  V30 15 C 6.9682 0.2367 0.0521 0
M  V30 16 H 5.0224 -0.2650 -0.8292 0
M  V30 17 H 5.0498 -0.1825 1.0026 0
M  V30 18 H 7.3530 0.8596 -0.7798 0
M  V30 19 H 7.3671 -0.7908 0.0332 0
M  V30 20 C -7.9894 0.2658 0.0380 0
M  V30 21 N -6.7851 -0.2451 0.6106 0
M  V30 22 C -5.5734 0.2658 0.0380 0
M  V30 23 H -8.1325 -0.0236 -1.0242 0
M  V30 24 H -8.8502 -0.1525 0.5887 0
M  V30 25 H -6.7589 -1.2830 0.5079 0
M  V30 26 H -5.4456 -0.0980 -1.0009 0
M  V30 27 H -4.7301 -0.1865 0.6284 0
M  V30 28 C 0.6631 0.2947 0.0291 0
M  V30 29 N 1.8674 -0.2162 0.6016 0
M  V30 30 C 3.0790 0.2947 0.0291 0
M  V30 31 H 0.5200 0.0054 -1.0332 0
M  V30 32 H -0.1977 -0.1236 0.5798 0
M  V30 33 H 1.8935 -1.2541 0.4989 0
M  V30 34 H 3.2068 -0.0691 -1.0098 0
M  V30 35 H 3.9224 -0.1576 0.6195 0
M  V30 36 C 9.2194 0.2344 0.0465 0
M  V30 37 N 10.4238 -0.2764 0.6191 0
M  V30 38 C 11.6354 0.2344 0.0465 0
M  V30 39 Br 11.8281 2.1384 0.2032 0
M  V30 40 H 9.0764 -0.0549 -1.0157 0
M  V30 41 H 8.3587 -0.1838 0.5972 0
M  V30 42 H 10.4499 -1.3144 0.5164 0
M  V30 43 H 11.7632 -0.1293 -0.9923 0
M  V30 44 H 12.4788 -0.2179 0.6370 0
M  V30 45 C -0.0000 0.7909 4.7336 0
M  V30 46 C 0.0000 -0.7438 4.7336 0
M  V30 47 H 0.8812 1.2020 4.2319 0
M  V30 48 H -0.9506 1.1746 4.3144 0
M  V30 49 H 0.8319 -1.1286 5.3565 0
M  V30 50 H 0.0189 -1.1427 3.7061 0
M  V30 51 C -0.0000 3.7889 2.6562 0
M  V30 52 C 0.0000 2.7037 3.7415 0
M  V30 53 H 0.8812 3.7248 2.0108 0
M  V30 54 H -0.9506 3.7638 2.0885 0
M  V30 55 H 0.8319 2.8720 4.4540 0
M  V30 56 H 0.0189 1.6951 3.2970 0
M  V30 57 C -0.0000 4.7903 -0.8907 0
M  V30 58 C -0.0000 4.7903 0.6440 0
M  V30 59 H 0.8812 4.2886 -1.3018 0
M  V30 60 H -0.9506 4.3711 -1.2744 0
M  V30 61 H 0.8319 5.4132 1.0288 0
M  V30 62 H 0.0189 3.7628 1.0429 0
M  V30 63 C -0.0000 2.7812 -4.1449 0
M  V30 64 C 0.0000 3.8665 -3.0597 0
M  V30 65 H 0.8812 2.1358 -4.0808 0
M  V30 66 H -0.9506 2.2135 -4.1198 0
M  V30 67 H 0.8319 4.5790 -3.2281 0
M  V30 68 H 0.0189 3.4220 -2.0511 0
M  V30 69 C -0.0000 -0.7630 -4.7475 0
M  V30 70 C 0.0000 0.7717 -4.7475 0
M  V30 71 H 0.8812 -1.1741 -4.2458 0
M  V30 72 H -0.9506 -1.1467 -4.3283 0
M  V30 73 H 0.8319 1.1565 -5.3704 0
M  V30 74 H 0.0189 1.1706 -3.7200 0
M  V30 75 C -0.0000 -3.7827 -2.6944 0
M  V30 76 C 0.0000 -2.6975 -3.7796 0
M  V30 77 H 0.8812 -3.7186 -2.0489 0
M  V30 78 H -0.9506 -3.7576 -2.1267 0
M  V30 79 H 0.8319 -2.8658 -4.4921 0
M  V30 80 H 0.0189 -1.6889 -3.3351 0
M  V30 81 C 0.0000 -4.7134 0.8968 0
M  V30 82 C -0.0000 -4.7134 -0.6379 0
M  V30 83 H 0.8812 -4.2117 1.3079 0
M  V30 84 H -0.9506 -4.2942 1.2805 0
M  V30 85 H 0.8319 -5.3363 -1.0227 0
M  V30 86 H 0.0189 -3.6859 -1.0368 0
M  V30 87 C -0.0000 -2.8922 4.1908 0
M  V30 88 C 0.0000 -3.9774 3.1056 0
M  V30 89 H 0.8812 -2.2468 4.1267 0
M  V30 90 H -0.9506 -2.3245 4.1657 0
M  V30 91 H 0.8319 -4.6900 3.2740 0
M  V30 92 H 0.0189 -3.5329 2.0970 0
M  V30 END ATOM
M  V30 BEGIN BOND
M  V30 1 1 1 2
M  V30 2 1 2 3
M  V30 3 1 2 4
M  V30 4 1 2 5
M  V30 5 1 3 6
M  V30 6 1 3 7
M  V30 7 1 8 9
M  V30 8 1 8 10
M  V30 9 1 8 11
M  V30 10 1 9 12
M  V30 11 1 9 13
M  V30 12 1 14 15
M  V30 13 1 14 16
M  V30 14 1 14 17
M  V30 15 1 15 18
M  V30 16 1 15 19
M  V30 17 1 20 21
M  V30 18 1 21 22
M  V30 19 1 20 23
M  V30 20 1 20 24
M  V30 21 1 21 25
M  V30 22 1 22 26
M  V30 23 1 22 27
M  V30 24 1 28 29
M  V30 25 1 29 30
M  V30 26 1 28 31
M  V30 27 1 28 32
M  V30 28 1 29 33
M  V30 29 1 30 34
M  V30 30 1 30 35
M  V30 31 1 36 37
M  V30 32 1 37 38
M  V30 33 1 38 39
M  V30 34 1 36 40
M  V30 35 1 36 41
M  V30 36 1 37 42
M  V30 37 1 38 43
M  V30 38 1 38 44
M  V30 39 1 3 20
M  V30 40 1 8 22
M  V30 41 1 9 28
M  V30 42 1 14 30
M  V30 43 1 15 36
M  V30 44 1 45 46
M  V30 45 1 45 47
M  V30 46 1 45 48
M  V30 47 1 46 49
M  V30 48 1 46 50
M  V30 49 1 51 52
M  V30 50 1 51 53
M  V30 51 1 51 54
M  V30 52 1 52 55
M  V30 53 1 52 56
M  V30 54 1 57 58
M  V30 55 1 57 59
M  V30 56 1 57 60
M  V30 57 1 58 61
M  V30 58 1 58 62
M  V30 59 1 63 64
M  V30 60 1 63 65
M  V30 61 1 63 66
M  V30 62 1 64 67
M  V30 63 1 64 68
M  V30 64 1 69 70
M  V30 65 1 69 71
M  V30 66 1 69 72
M  V30 67 1 70 73
M  V30 68 1 70 74
M  V30 69 1 75 76
M  V30 70 1 75 77
M  V30 71 1 75 78
M  V30 72 1 76 79
M  V30 73 1 76 80
M  V30 74 1 81 82
M  V30 75 1 81 83
M  V30 76 1 81 84
M  V30 77 1 82 85
M  V30 78 1 82 86
M  V30 79 1 87 88
M  V30 80 1 87 89
M  V30 81 1 87 90
M  V30 82 1 88 91
M  V30 83 1 88 92
M  V30 84 1 45 52
M  V30 85 1 51 58
M  V30 86 1 57 64
M  V30 87 1 63 70
M  V30 88 1 69 76
M  V30 89 1 75 82
M  V30 90 1 81 88
M  V30 91 1 46 87
M  V30 END BOND
M  V30 END CTAB
M  END

$$$$
