
     RDKit          3D

  0  0  0  0  0  0  0  0  0  0999 V3000
M  V30 BEGIN CTAB
M  V30 COUNTS 29 28 0 0 0
M  V30 BEGIN ATOM
M  V30 1 N 4.8543 0.6842 0.6785 0
M  V30 2 C 3.9861 -0.4091 0.9129 0
M  V30 3 C 2.5131 0.0184 0.9644 0
M  V30 4 N 2.1489 0.5933 -0.2621 0
M  V30 5 C 0.7515 0.7721 -0.5563 0
M  V30 6 C 0.2258 -0.6183 -0.8269 0
M  V30 7 N -1.1326 -0.6718 -1.1620 0
M  V30 8 H 5.4205 0.6815 -0.1737 0
M  V30 9 H 4.6609 1.5742 1.1052 0
M  V30 10 H 4.2129 -0.8777 1.9000 0
M  V30 11 H 4.1231 -1.1727 0.1094 0
M  V30 12 H 1.9022 -0.8685 1.1920 0
M  V30 13 H 2.3728 0.7858 1.7711 0
M  V30 14 H 2.7610 1.3460 -0.6215 0
M  V30 15 H 0.6583 1.4384 -1.4196 0
M  V30 16 H 0.1783 1.2299 0.2980 0
M  V30 17 H 0.8621 -1.0068 -1.6749 0
M  V30 18 H 0.4367 -1.3160 0.0165 0
M  V30 19 C -2.0607 -0.9474 -0.3836 0
M  V30 20 C -3.4652 -0.9888 -0.8218 0
M  V30 21 C -4.2152 0.2974 -0.6574 0
M  V30 22 C -4.2388 0.7565 0.7616 0
M  V30 23 O -3.6303 0.1341 1.6496 0
M  V30 24 H -1.8289 -1.1514 0.6715 0
M  V30 25 H -4.0590 -1.7796 -0.2926 0
M  V30 26 H -3.5336 -1.3078 -1.9137 0
M  V30 27 H -3.8474 1.1036 -1.3276 0
M  V30 28 H -5.2799 0.0722 -0.9890 0
M  V30 29 H -4.7770 1.6281 1.0520 0
M  V30 END ATOM
M  V30 BEGIN BOND
M  V30 1 1 1 2
M  V30 2 1 2 3
M  V30 3 1 3 4
M  V30 4 1 4 5
M  V30 5 1 5 6
M  V30 6 1 6 7
M  V30 7 1 1 8
M  V30 8 1 1 9
M  V30 9 1 2 10
M  V30 10 1 2 11
M  V30 11 1 3 12
M  V30 12 1 3 13
M  V30 13 1 4 14
M  V30 14 1 5 15
M  V30 15 1 5 16
M  V30 16 1 6 17
M  V30 17 1 6 18
M  V30 18 1 19 20
M  V30 19 1 20 21
M  V30 20 1 21 22
M  V30 21 2 22 23
M  V30 22 1 19 24
M  V30 23 1 20 25
M  V30 24 1 20 26
M  V30 25 1 21 27
M  V30 26 1 21 28
M  V30 27 1 22 29
M  V30 28 2 7 19
M  V30 END BOND
M  V30 END CTAB
M  END

$$$$
