
     RDKit          3D

  0  0  0  0  0  0  0  0  0  0999 V3000
M  V30 BEGIN CTAB
M  V30 COUNTS 20 19 0 0 0
M  V30 BEGIN ATOM
M  V30 1 N 2.5205 1.1082 -1.0118 0
M  V30 2 C 2.4869 -0.3216 -0.6384 0
M  V30 3 C 1.3217 -0.4629 0.3612 0
M  V30 4 N 0.1245 -0.1114 -0.3496 0
M  V30 5 C -1.0415 0.0164 0.4388 0
M  V30 6 C -2.2504 0.0295 -0.4700 0
M  V30 7 N -3.4597 0.1735 0.3320 0
M  V30 8 H 3.4899 1.4535 -0.8680 0
M  V30 9 H 1.9339 1.6857 -0.3276 0
M  V30 10 H 3.4314 -0.6783 -0.2033 0
M  V30 11 H 2.2923 -0.9067 -1.5567 0
M  V30 12 H 1.4627 0.2374 1.2070 0
M  V30 13 H 1.2535 -1.5165 0.7342 0
M  V30 14 H 0.0892 -0.4900 -1.2794 0
M  V30 15 H -1.0829 -0.7497 1.2467 0
M  V30 16 H -0.9787 1.0543 0.9372 0
M  V30 17 H -2.2426 -0.9790 -0.9943 0
M  V30 18 H -2.1245 0.8135 -1.2209 0
M  V30 19 H -3.9816 -0.7560 0.3774 0
M  V30 20 H -3.2446 0.4002 1.3145 0
M  V30 END ATOM
M  V30 BEGIN BOND
M  V30 1 1 1 2
M  V30 2 1 2 3
M  V30 3 1 3 4
M  V30 4 1 4 5
M  V30 5 1 5 6
M  V30 6 1 6 7
M  V30 7 1 1 8
M  V30 8 1 1 9
M  V30 9 1 2 10
M  V30 10 1 2 11
M  V30 11 1 3 12
M  V30 12 1 3 13
M  V30 13 1 4 14
M  V30 14 1 5 15
M  V30 15 1 5 16
M  V30 16 1 6 17
M  V30 17 1 6 18
M  V30 18 1 7 19
M  V30 19 1 7 20
M  V30 END BOND
M  V30 END CTAB
M  END

$$$$
