
     RDKit          3D

  0  0  0  0  0  0  0  0  0  0999 V3000
M  V30 BEGIN CTAB
M  V30 COUNTS 57 56 0 0 0
M  V30 BEGIN ATOM
M  V30 1 N -8.5501 2.3560 -1.4818 0
M  V30 2 C -7.1477 2.1372 -1.8257 0
M  V30 3 C -6.3014 1.9791 -0.5638 0
M  V30 4 N -6.6677 0.7680 0.1334 0
M  V30 5 H -8.9509 1.4513 -1.1427 0
M  V30 6 H -9.0604 2.5902 -2.3641 0
M  V30 7 H -7.0454 1.2348 -2.4697 0
M  V30 8 H -6.7716 3.0144 -2.3965 0
M  V30 9 H -6.4514 2.8594 0.0997 0
M  V30 10 H -5.2286 1.9294 -0.8543 0
M  V30 11 N -4.3836 -1.9471 -0.5279 0
M  V30 12 C -2.9886 -1.9752 -0.9071 0
M  V30 13 C -2.2545 -0.7552 -0.3395 0
M  V30 14 N -0.8836 -0.7218 -0.7995 0
M  V30 15 H -2.9251 -1.9509 -2.0158 0
M  V30 16 H -2.5155 -2.9186 -0.5551 0
M  V30 17 H -2.2830 -0.7629 0.7728 0
M  V30 18 H -2.7653 0.1677 -0.6883 0
M  V30 19 N 3.2702 -0.3907 1.6619 0
M  V30 20 C 4.4526 -1.0261 1.1140 0
M  V30 21 C 5.4836 0.0249 0.7051 0
M  V30 22 N 6.6533 -0.6314 0.1604 0
M  V30 23 H 4.1993 -1.6892 0.2602 0
M  V30 24 H 4.8992 -1.6660 1.9047 0
M  V30 25 H 5.0481 0.7066 -0.0557 0
M  V30 26 H 5.7696 0.6188 1.6008 0
M  V30 27 C -6.0779 0.4024 1.2169 0
M  V30 28 C -6.4755 -0.8732 1.9039 0
M  V30 29 C -6.2347 -2.1027 1.0197 0
M  V30 30 C -4.7839 -2.2382 0.6610 0
M  V30 31 H -5.2810 1.0070 1.6443 0
M  V30 32 H -5.8967 -0.9762 2.8474 0
M  V30 33 H -7.5528 -0.8196 2.1707 0
M  V30 34 H -6.5486 -3.0131 1.5732 0
M  V30 35 H -6.8581 -2.0365 0.1004 0
M  V30 36 H -4.0708 -2.5083 1.4365 0
M  V30 37 C 0.0192 -1.5198 -0.3441 0
M  V30 38 C 1.4259 -1.4475 -0.8646 0
M  V30 39 C 2.1010 -0.1156 -0.5116 0
M  V30 40 C 2.2604 0.0486 0.9829 0
M  V30 41 H -0.2272 -2.2625 0.4111 0
M  V30 42 H 1.4067 -1.5661 -1.9694 0
M  V30 43 H 2.0119 -2.2930 -0.4461 0
M  V30 44 H 1.4825 0.7237 -0.8969 0
M  V30 45 H 3.0776 -0.0456 -1.0312 0
M  V30 46 H 1.4438 0.5152 1.5243 0
M  V30 47 C 7.6984 -0.0130 -0.2791 0
M  V30 48 C 7.8201 1.4947 -0.2785 0
M  V30 49 C 9.1650 1.9649 -0.8467 0
M  V30 50 C 10.3150 1.5665 0.0323 0
M  V30 51 O 10.4190 2.0212 1.1605 0
M  V30 52 H 8.5187 -0.6099 -0.6661 0
M  V30 53 H 7.6981 1.8827 0.7560 0
M  V30 54 H 7.0084 1.9202 -0.9067 0
M  V30 55 H 9.1544 3.0720 -0.9417 0
M  V30 56 H 9.3115 1.5396 -1.8635 0
M  V30 57 H 11.0678 0.8794 -0.3397 0
M  V30 END ATOM
M  V30 BEGIN BOND
M  V30 1 1 1 2
M  V30 2 1 2 3
M  V30 3 1 3 4
M  V30 4 1 1 5
M  V30 5 1 1 6
M  V30 6 1 2 7
M  V30 7 1 2 8
M  V30 8 1 3 9
M  V30 9 1 3 10
M  V30 10 1 11 12
M  V30 11 1 12 13
M  V30 12 1 13 14
M  V30 13 1 12 15
M  V30 14 1 12 16
M  V30 15 1 13 17
M  V30 16 1 13 18
M  V30 17 1 19 20
M  V30 18 1 20 21
M  V30 19 1 21 22
M  V30 20 1 20 23
M  V30 21 1 20 24
M  V30 22 1 21 25
M  V30 23 1 21 26
M  V30 24 1 27 28
M  V30 25 1 28 29
M  V30 26 1 29 30
M  V30 27 1 27 31
M  V30 28 1 28 32
M  V30 29 1 28 33
M  V30 30 1 29 34
M  V30 31 1 29 35
M  V30 32 1 30 36
M  V30 33 1 37 38
M  V30 34 1 38 39
M  V30 35 1 39 40
M  V30 36 1 37 41
M  V30 37 1 38 42
M  V30 38 1 38 43
M  V30 39 1 39 44
M  V30 40 1 39 45
M  V30 41 1 40 46
M  V30 42 1 47 48
M  V30 43 1 48 49
M  V30 44 1 49 50
M  V30 45 2 50 51
M  V30 46 1 47 52
M  V30 47 1 48 53
M  V30 48 1 48 54
M  V30 49 1 49 55
M  V30 50 1 49 56
M  V30 51 1 50 57
M  V30 52 2 4 27
M  V30 53 2 11 30
M  V30 54 2 14 37
M  V30 55 2 19 40
M  V30 56 2 22 47
M  V30 END BOND
M  V30 END CTAB
M  END

$$$$
