
     RDKit          3D

  0  0  0  0  0  0  0  0  0  0999 V3000
M  V30 BEGIN CTAB
M  V30 COUNTS 45 44 0 0 0
M  V30 BEGIN ATOM
M  V30 1 C -1.2134 -0.7006 7.6921 0
M  V30 2 C 0.0024 0.0195 8.1532 0
M  V30 3 C 1.2289 -0.7128 7.6921 0
M  V30 4 O 2.0479 -1.1485 8.4913 0
M  V30 5 C -0.0155 1.4134 7.6921 0
M  V30 6 H -1.4106 -0.8660 6.6467 0
M  V30 7 H 0.0228 0.0328 9.2640 0
M  V30 8 H 1.3779 -0.8508 6.6158 0
M  V30 9 H 0.7696 2.1271 7.9093 0
M  V30 10 C -6.6851 -3.8596 -1.2430 0
M  V30 11 C -6.6459 -3.8550 -2.7289 0
M  V30 12 C -6.6921 -2.4414 -3.2314 0
M  V30 13 O -7.5962 -2.0548 -3.9611 0
M  V30 14 C -5.4646 -4.5773 -3.2177 0
M  V30 15 O -4.6918 -5.0716 -2.4160 0
M  V30 16 H -5.9270 -3.3704 -0.6555 0
M  V30 17 H -7.5451 -4.3758 -3.1221 0
M  V30 18 H -5.8930 -1.7560 -2.9293 0
M  V30 19 H -5.2299 -4.7022 -4.2675 0
M  V30 20 C -0.0000 7.7193 -1.2430 0
M  V30 21 C -0.0156 7.6830 -2.7289 0
M  V30 22 C 1.2317 7.0162 -3.2314 0
M  V30 23 O 2.0186 7.6059 -3.9611 0
M  V30 24 C -1.2317 7.0211 -3.2177 0
M  V30 25 O -2.0463 6.5990 -2.4160 0
M  V30 26 H 0.0447 6.8181 -0.6555 0
M  V30 27 H -0.0170 8.7221 -3.1221 0
M  V30 28 H 1.4257 5.9815 -2.9293 0
M  V30 29 H -1.4573 6.8803 -4.2675 0
M  V30 30 N -3.2178 -1.8578 4.4191 0
M  V30 31 C -4.6051 -2.2313 4.4421 0
M  V30 32 C -4.9290 -3.2079 3.3152 0
M  V30 33 N -4.6808 -2.7024 2.0300 0
M  V30 34 H -5.2477 -1.3300 4.3651 0
M  V30 35 H -4.7784 -2.7831 5.3911 0
M  V30 36 H -4.2388 -4.0831 3.4884 0
M  V30 37 H -5.9702 -3.5517 3.4212 0
M  V30 38 N -0.0077 3.7216 4.4191 0
M  V30 39 C 0.3608 5.1103 4.4424 0
M  V30 40 C -0.3230 5.8783 3.3150 0
M  V30 41 N -0.0077 5.4110 2.0300 0
M  V30 42 H 1.4626 5.2174 4.3663 0
M  V30 43 H -0.0316 5.5358 5.3911 0
M  V30 44 H -1.4260 5.7170 3.4873 0
M  V30 45 H -0.1013 6.9522 3.4211 0
M  V30 END ATOM
M  V30 BEGIN BOND
M  V30 1 1 1 2
M  V30 2 1 2 3
M  V30 3 2 3 4
M  V30 4 1 2 5
M  V30 5 1 1 6
M  V30 6 1 2 7
M  V30 7 1 3 8
M  V30 8 1 5 9
M  V30 9 1 10 11
M  V30 10 1 11 12
M  V30 11 2 12 13
M  V30 12 1 11 14
M  V30 13 2 14 15
M  V30 14 1 10 16
M  V30 15 1 11 17
M  V30 16 1 12 18
M  V30 17 1 14 19
M  V30 18 1 20 21
M  V30 19 1 21 22
M  V30 20 2 22 23
M  V30 21 1 21 24
M  V30 22 2 24 25
M  V30 23 1 20 26
M  V30 24 1 21 27
M  V30 25 1 22 28
M  V30 26 1 24 29
M  V30 27 1 30 31
M  V30 28 1 31 32
M  V30 29 1 32 33
M  V30 30 1 31 34
M  V30 31 1 31 35
M  V30 32 1 32 36
M  V30 33 1 32 37
M  V30 34 1 38 39
M  V30 35 1 39 40
M  V30 36 1 40 41
M  V30 37 1 39 42
M  V30 38 1 39 43
M  V30 39 1 40 44
M  V30 40 1 40 45
M  V30 41 2 1 30
M  V30 42 2 10 33
M  V30 43 2 5 38
M  V30 44 2 20 41
M  V30 END BOND
M  V30 END CTAB
M  END

$$$$
