
     RDKit          3D

  0  0  0  0  0  0  0  0  0  0999 V3000
M  V30 BEGIN CTAB
M  V30 COUNTS 11 10 0 0 0
M  V30 BEGIN ATOM
M  V30 1 O -0.0380 8.7847 -0.6552 0
M  V30 2 C -0.0000 7.7193 -1.2430 0
M  V30 3 C -0.0156 7.6830 -2.7289 0
M  V30 4 C 1.2317 7.0162 -3.2314 0
M  V30 5 O 2.0186 7.6059 -3.9611 0
M  V30 6 C -1.2317 7.0211 -3.2177 0
M  V30 7 O -2.0463 6.5990 -2.4160 0
M  V30 8 H 0.0447 6.8181 -0.6555 0
M  V30 9 H -0.0170 8.7221 -3.1221 0
M  V30 10 H 1.4257 5.9815 -2.9293 0
M  V30 11 H -1.4573 6.8803 -4.2675 0
M  V30 END ATOM
M  V30 BEGIN BOND
M  V30 1 2 1 2
M  V30 2 1 2 3
M  V30 3 1 3 4
M  V30 4 2 4 5
M  V30 5 1 3 6
M  V30 6 2 6 7
M  V30 7 1 2 8
M  V30 8 1 3 9
M  V30 9 1 4 10
M  V30 10 1 6 11
M  V30 END BOND
M  V30 END CTAB
M  END

$$$$
