
     RDKit          3D

  0  0  0  0  0  0  0  0  0  0999 V3000
M  V30 BEGIN CTAB
M  V30 COUNTS 12 11 0 0 0
M  V30 BEGIN ATOM
M  V30 1 N -0.0077 3.7216 4.4191 0
M  V30 2 C 0.3608 5.1103 4.4424 0
M  V30 3 C -0.3230 5.8783 3.3150 0
M  V30 4 N -0.0077 5.4110 2.0300 0
M  V30 5 H -1.0144 3.6048 4.6657 0
M  V30 6 H 0.1808 3.2703 3.4869 0
M  V30 7 H 1.4626 5.2174 4.3663 0
M  V30 8 H -0.0316 5.5358 5.3911 0
M  V30 9 H -1.4260 5.7170 3.4873 0
M  V30 10 H -0.1013 6.9522 3.4211 0
M  V30 11 H -0.6584 4.8111 1.5438 0
M  V30 12 H 0.8893 5.6239 1.6259 0
M  V30 END ATOM
M  V30 BEGIN BOND
M  V30 1 1 1 2
M  V30 2 1 2 3
M  V30 3 1 3 4
M  V30 4 1 1 5
M  V30 5 1 1 6
M  V30 6 1 2 7
M  V30 7 1 2 8
M  V30 8 1 3 9
M  V30 9 1 3 10
M  V30 10 1 4 11
M  V30 11 1 4 12
M  V30 END BOND
M  V30 END CTAB
M  END

$$$$
