
     RDKit          3D

  0  0  0  0  0  0  0  0  0  0999 V3000
M  V30 BEGIN CTAB
M  V30 COUNTS 46 45 0 0 0
M  V30 BEGIN ATOM
M  V30 1 O -2.0200 -1.1223 8.5007 0
M  V30 2 C -1.2134 -0.7006 7.6921 0
M  V30 3 C 0.0024 0.0195 8.1532 0
M  V30 4 C 1.2289 -0.7128 7.6921 0
M  V30 5 C -0.0155 1.4134 7.6921 0
M  V30 6 H -1.4106 -0.8660 6.6467 0
M  V30 7 H 0.0228 0.0328 9.2640 0
M  V30 8 H 1.3779 -0.8508 6.6158 0
M  V30 9 H 0.7696 2.1271 7.9093 0
M  V30 10 C 6.6851 -3.8596 -1.2430 0
M  V30 11 C 6.6615 -3.8280 -2.7289 0
M  V30 12 C 5.4604 -4.5748 -3.2314 0
M  V30 13 O 5.5776 -5.5511 -3.9611 0
M  V30 14 C 6.6963 -2.4438 -3.2177 0
M  V30 15 H 5.8824 -3.4478 -0.6555 0
M  V30 16 H 7.5621 -4.3463 -3.1221 0
M  V30 17 H 4.4673 -4.2255 -2.9293 0
M  V30 18 H 6.6872 -2.1781 -4.2675 0
M  V30 19 N 3.2255 -1.8639 4.4191 0
M  V30 20 C 4.2425 -2.8787 4.4421 0
M  V30 21 C 5.2503 -2.6710 3.3153 0
M  V30 22 N 4.6885 -2.7085 2.0300 0
M  V30 23 H 3.7830 -3.8858 4.3649 0
M  V30 24 H 4.8069 -2.7532 5.3911 0
M  V30 25 H 5.6634 -1.6358 3.4886 0
M  V30 26 H 6.0684 -3.4011 3.4212 0
M  V30 27 N -0.0077 3.7216 4.4191 0
M  V30 28 C 0.3608 5.1103 4.4424 0
M  V30 29 C -0.3230 5.8783 3.3150 0
M  V30 30 N -0.0077 5.4110 2.0300 0
M  V30 31 H 1.4626 5.2174 4.3663 0
M  V30 32 H -0.0316 5.5358 5.3911 0
M  V30 33 H -1.4260 5.7170 3.4873 0
M  V30 34 H -0.1013 6.9522 3.4211 0
M  V30 35 H -0.6584 4.8111 1.5438 0
M  V30 36 H 0.8893 5.6239 1.6259 0
M  V30 37 N 4.6955 1.0192 -3.2246 0
M  V30 38 C 4.9314 2.0591 -4.1877 0
M  V30 39 C 4.5743 3.4280 -3.6155 0
M  V30 40 N 3.2325 3.5532 -3.2246 0
M  V30 41 H 4.3495 1.8663 -5.1126 0
M  V30 42 H 6.0251 2.0799 -4.3839 0
M  V30 43 H 5.2197 3.5306 -2.6961 0
M  V30 44 H 4.8603 4.2089 -4.3380 0
M  V30 45 H 2.9875 3.4702 -2.2486 0
M  V30 46 H 2.5157 3.6623 -3.9228 0
M  V30 END ATOM
M  V30 BEGIN BOND
M  V30 1 2 1 2
M  V30 2 1 2 3
M  V30 3 1 3 4
M  V30 4 1 3 5
M  V30 5 1 2 6
M  V30 6 1 3 7
M  V30 7 1 4 8
M  V30 8 1 5 9
M  V30 9 1 10 11
M  V30 10 1 11 12
M  V30 11 2 12 13
M  V30 12 1 11 14
M  V30 13 1 10 15
M  V30 14 1 11 16
M  V30 15 1 12 17
M  V30 16 1 14 18
M  V30 17 1 19 20
M  V30 18 1 20 21
M  V30 19 1 21 22
M  V30 20 1 20 23
M  V30 21 1 20 24
M  V30 22 1 21 25
M  V30 23 1 21 26
M  V30 24 1 27 28
M  V30 25 1 28 29
M  V30 26 1 29 30
M  V30 27 1 28 31
M  V30 28 1 28 32
M  V30 29 1 29 33
M  V30 30 1 29 34
M  V30 31 1 30 35
M  V30 32 1 30 36
M  V30 33 1 37 38
M  V30 34 1 38 39
M  V30 35 1 39 40
M  V30 36 1 38 41
M  V30 37 1 38 42
M  V30 38 1 39 43
M  V30 39 1 39 44
M  V30 40 1 40 45
M  V30 41 1 40 46
M  V30 42 2 4 19
M  V30 43 2 10 22
M  V30 44 2 5 27
M  V30 45 2 14 37
M  V30 END BOND
M  V30 END CTAB
M  END

$$$$
