
     RDKit          3D

  0  0  0  0  0  0  0  0  0  0999 V3000
M  V30 BEGIN CTAB
M  V30 COUNTS 46 45 0 0 0
M  V30 BEGIN ATOM
M  V30 1 C -6.6851 -3.8596 -1.2430 0
M  V30 2 C -6.6459 -3.8550 -2.7289 0
M  V30 3 C -6.6921 -2.4414 -3.2314 0
M  V30 4 C -5.4646 -4.5773 -3.2177 0
M  V30 5 O -4.6918 -5.0716 -2.4160 0
M  V30 6 H -5.9270 -3.3704 -0.6555 0
M  V30 7 H -7.5451 -4.3758 -3.1221 0
M  V30 8 H -5.8930 -1.7560 -2.9293 0
M  V30 9 H -5.2299 -4.7022 -4.2675 0
M  V30 10 O -0.0380 8.7847 -0.6552 0
M  V30 11 C -0.0000 7.7193 -1.2430 0
M  V30 12 C -0.0156 7.6830 -2.7289 0
M  V30 13 C 1.2317 7.0162 -3.2314 0
M  V30 14 C -1.2317 7.0211 -3.2177 0
M  V30 15 H 0.0447 6.8181 -0.6555 0
M  V30 16 H -0.0170 8.7221 -3.1221 0
M  V30 17 H 1.4257 5.9815 -2.9293 0
M  V30 18 H -1.4573 6.8803 -4.2675 0
M  V30 19 N -3.2178 -1.8578 4.4191 0
M  V30 20 C -4.6051 -2.2313 4.4421 0
M  V30 21 C -4.9290 -3.2079 3.3152 0
M  V30 22 N -4.6808 -2.7024 2.0300 0
M  V30 23 H -2.6142 -2.6716 4.6665 0
M  V30 24 H -2.9204 -1.4698 3.4867 0
M  V30 25 H -5.2477 -1.3300 4.3651 0
M  V30 26 H -4.7784 -2.7831 5.3911 0
M  V30 27 H -4.2388 -4.0831 3.4884 0
M  V30 28 H -5.9702 -3.5517 3.4212 0
M  V30 29 N -4.6934 1.0229 -3.2246 0
M  V30 30 C -5.2985 2.2760 -3.5825 0
M  V30 31 C -4.2593 3.2509 -4.1283 0
M  V30 32 N -3.2304 3.5569 -3.2246 0
M  V30 33 H -5.8160 2.7179 -2.7060 0
M  V30 34 H -6.0020 2.0714 -4.4183 0
M  V30 35 H -3.8042 2.7182 -5.0123 0
M  V30 36 H -4.7677 4.1603 -4.4863 0
M  V30 37 N 4.6955 1.0192 -3.2246 0
M  V30 38 C 4.9314 2.0591 -4.1877 0
M  V30 39 C 4.5743 3.4280 -3.6155 0
M  V30 40 N 3.2325 3.5532 -3.2246 0
M  V30 41 H 5.3663 1.0960 -2.4296 0
M  V30 42 H 3.7098 1.0281 -2.8552 0
M  V30 43 H 4.3495 1.8663 -5.1126 0
M  V30 44 H 6.0251 2.0799 -4.3839 0
M  V30 45 H 5.2197 3.5306 -2.6961 0
M  V30 46 H 4.8603 4.2089 -4.3380 0
M  V30 END ATOM
M  V30 BEGIN BOND
M  V30 1 1 1 2
M  V30 2 1 2 3
M  V30 3 1 2 4
M  V30 4 2 4 5
M  V30 5 1 1 6
M  V30 6 1 2 7
M  V30 7 1 3 8
M  V30 8 1 4 9
M  V30 9 2 10 11
M  V30 10 1 11 12
M  V30 11 1 12 13
M  V30 12 1 12 14
M  V30 13 1 11 15
M  V30 14 1 12 16
M  V30 15 1 13 17
M  V30 16 1 14 18
M  V30 17 1 19 20
M  V30 18 1 20 21
M  V30 19 1 21 22
M  V30 20 1 19 23
M  V30 21 1 19 24
M  V30 22 1 20 25
M  V30 23 1 20 26
M  V30 24 1 21 27
M  V30 25 1 21 28
M  V30 26 1 29 30
M  V30 27 1 30 31
M  V30 28 1 31 32
M  V30 29 1 30 33
M  V30 30 1 30 34
M  V30 31 1 31 35
M  V30 32 1 31 36
M  V30 33 1 37 38
M  V30 34 1 38 39
M  V30 35 1 39 40
M  V30 36 1 37 41
M  V30 37 1 37 42
M  V30 38 1 38 43
M  V30 39 1 38 44
M  V30 40 1 39 45
M  V30 41 1 39 46
M  V30 42 2 1 22
M  V30 43 2 3 29
M  V30 44 2 14 32
M  V30 45 2 13 40
M  V30 END BOND
M  V30 END CTAB
M  END

$$$$
