
     RDKit          3D

  0  0  0  0  0  0  0  0  0  0999 V3000
M  V30 BEGIN CTAB
M  V30 COUNTS 46 45 0 0 0
M  V30 BEGIN ATOM
M  V30 1 O -2.0200 -1.1223 8.5007 0
M  V30 2 C -1.2134 -0.7006 7.6921 0
M  V30 3 C 0.0024 0.0195 8.1532 0
M  V30 4 C 1.2289 -0.7128 7.6921 0
M  V30 5 O 2.0479 -1.1485 8.4913 0
M  V30 6 C -0.0155 1.4134 7.6921 0
M  V30 7 H -1.4106 -0.8660 6.6467 0
M  V30 8 H 0.0228 0.0328 9.2640 0
M  V30 9 H 1.3779 -0.8508 6.6158 0
M  V30 10 H 0.7696 2.1271 7.9093 0
M  V30 11 C -0.0000 7.7193 -1.2430 0
M  V30 12 C -0.0156 7.6830 -2.7289 0
M  V30 13 C 1.2317 7.0162 -3.2314 0
M  V30 14 C -1.2317 7.0211 -3.2177 0
M  V30 15 H 0.0447 6.8181 -0.6555 0
M  V30 16 H -0.0170 8.7221 -3.1221 0
M  V30 17 H 1.4257 5.9815 -2.9293 0
M  V30 18 H -1.4573 6.8803 -4.2675 0
M  V30 19 N -0.0077 3.7216 4.4191 0
M  V30 20 C 0.3608 5.1103 4.4424 0
M  V30 21 C -0.3230 5.8783 3.3150 0
M  V30 22 N -0.0077 5.4110 2.0300 0
M  V30 23 H 1.4626 5.2174 4.3663 0
M  V30 24 H -0.0316 5.5358 5.3911 0
M  V30 25 H -1.4260 5.7170 3.4873 0
M  V30 26 H -0.1013 6.9522 3.4211 0
M  V30 27 N -4.6934 1.0229 -3.2246 0
M  V30 28 C -5.2985 2.2760 -3.5825 0
M  V30 29 C -4.2593 3.2509 -4.1283 0
M  V30 30 N -3.2304 3.5569 -3.2246 0
M  V30 31 H -4.3600 0.5199 -4.0752 0
M  V30 32 H -3.8945 1.1396 -2.5490 0
M  V30 33 H -5.8160 2.7179 -2.7060 0
M  V30 34 H -6.0020 2.0714 -4.4183 0
M  V30 35 H -3.8042 2.7182 -5.0123 0
M  V30 36 H -4.7677 4.1603 -4.4863 0
M  V30 37 N 4.6955 1.0192 -3.2246 0
M  V30 38 C 4.9314 2.0591 -4.1877 0
M  V30 39 C 4.5743 3.4280 -3.6155 0
M  V30 40 N 3.2325 3.5532 -3.2246 0
M  V30 41 H 5.3663 1.0960 -2.4296 0
M  V30 42 H 3.7098 1.0281 -2.8552 0
M  V30 43 H 4.3495 1.8663 -5.1126 0
M  V30 44 H 6.0251 2.0799 -4.3839 0
M  V30 45 H 5.2197 3.5306 -2.6961 0
M  V30 46 H 4.8603 4.2089 -4.3380 0
M  V30 END ATOM
M  V30 BEGIN BOND
M  V30 1 2 1 2
M  V30 2 1 2 3
M  V30 3 1 3 4
M  V30 4 2 4 5
M  V30 5 1 3 6
M  V30 6 1 2 7
M  V30 7 1 3 8
M  V30 8 1 4 9
M  V30 9 1 6 10
M  V30 10 1 11 12
M  V30 11 1 12 13
M  V30 12 1 12 14
M  V30 13 1 11 15
M  V30 14 1 12 16
M  V30 15 1 13 17
M  V30 16 1 14 18
M  V30 17 1 19 20
M  V30 18 1 20 21
M  V30 19 1 21 22
M  V30 20 1 20 23
M  V30 21 1 20 24
M  V30 22 1 21 25
M  V30 23 1 21 26
M  V30 24 1 27 28
M  V30 25 1 28 29
M  V30 26 1 29 30
M  V30 27 1 27 31
M  V30 28 1 27 32
M  V30 29 1 28 33
M  V30 30 1 28 34
M  V30 31 1 29 35
M  V30 32 1 29 36
M  V30 33 1 37 38
M  V30 34 1 38 39
M  V30 35 1 39 40
M  V30 36 1 37 41
M  V30 37 1 37 42
M  V30 38 1 38 43
M  V30 39 1 38 44
M  V30 40 1 39 45
M  V30 41 1 39 46
M  V30 42 2 6 19
M  V30 43 2 11 22
M  V30 44 2 14 30
M  V30 45 2 13 40
M  V30 END BOND
M  V30 END CTAB
M  END

$$$$
