
     RDKit          3D

  0  0  0  0  0  0  0  0  0  0999 V3000
M  V30 BEGIN CTAB
M  V30 COUNTS 45 44 0 0 0
M  V30 BEGIN ATOM
M  V30 1 O -7.5888 -4.4253 -0.6552 0
M  V30 2 C -6.6851 -3.8596 -1.2430 0
M  V30 3 C -6.6459 -3.8550 -2.7289 0
M  V30 4 C -6.6921 -2.4414 -3.2314 0
M  V30 5 C -5.4646 -4.5773 -3.2177 0
M  V30 6 H -5.9270 -3.3704 -0.6555 0
M  V30 7 H -7.5451 -4.3758 -3.1221 0
M  V30 8 H -5.8930 -1.7560 -2.9293 0
M  V30 9 H -5.2299 -4.7022 -4.2675 0
M  V30 10 O 7.6268 -4.3594 -0.6552 0
M  V30 11 C 6.6851 -3.8596 -1.2430 0
M  V30 12 C 6.6615 -3.8280 -2.7289 0
M  V30 13 C 5.4604 -4.5748 -3.2314 0
M  V30 14 C 6.6963 -2.4438 -3.2177 0
M  V30 15 O 6.7381 -1.5274 -2.4160 0
M  V30 16 H 5.8824 -3.4478 -0.6555 0
M  V30 17 H 7.5621 -4.3463 -3.1221 0
M  V30 18 H 4.4673 -4.2255 -2.9293 0
M  V30 19 H 6.6872 -2.1781 -4.2675 0
M  V30 20 O -0.0380 8.7847 -0.6552 0
M  V30 21 C -0.0000 7.7193 -1.2430 0
M  V30 22 C -0.0156 7.6830 -2.7289 0
M  V30 23 C 1.2317 7.0162 -3.2314 0
M  V30 24 O 2.0186 7.6059 -3.9611 0
M  V30 25 C -1.2317 7.0211 -3.2177 0
M  V30 26 H 0.0447 6.8181 -0.6555 0
M  V30 27 H -0.0170 8.7221 -3.1221 0
M  V30 28 H 1.4257 5.9815 -2.9293 0
M  V30 29 H -1.4573 6.8803 -4.2675 0
M  V30 30 N -1.4651 -4.5761 -3.2246 0
M  V30 31 C -0.6824 -5.3003 -4.1877 0
M  V30 32 C 0.6815 -5.6755 -3.6155 0
M  V30 33 N 1.4609 -4.5761 -3.2246 0
M  V30 34 H -0.5584 -4.6999 -5.1126 0
M  V30 35 H -1.2113 -6.2578 -4.3839 0
M  V30 36 H 0.4477 -6.2857 -2.6961 0
M  V30 37 H 1.2149 -6.3136 -4.3380 0
M  V30 38 N -4.6934 1.0229 -3.2246 0
M  V30 39 C -5.2985 2.2760 -3.5825 0
M  V30 40 C -4.2593 3.2509 -4.1283 0
M  V30 41 N -3.2304 3.5569 -3.2246 0
M  V30 42 H -5.8160 2.7179 -2.7060 0
M  V30 43 H -6.0020 2.0714 -4.4183 0
M  V30 44 H -3.8042 2.7182 -5.0123 0
M  V30 45 H -4.7677 4.1603 -4.4863 0
M  V30 END ATOM
M  V30 BEGIN BOND
M  V30 1 2 1 2
M  V30 2 1 2 3
M  V30 3 1 3 4
M  V30 4 1 3 5
M  V30 5 1 2 6
M  V30 6 1 3 7
M  V30 7 1 4 8
M  V30 8 1 5 9
M  V30 9 2 10 11
M  V30 10 1 11 12
M  V30 11 1 12 13
M  V30 12 1 12 14
M  V30 13 2 14 15
M  V30 14 1 11 16
M  V30 15 1 12 17
M  V30 16 1 13 18
M  V30 17 1 14 19
M  V30 18 2 20 21
M  V30 19 1 21 22
M  V30 20 1 22 23
M  V30 21 2 23 24
M  V30 22 1 22 25
M  V30 23 1 21 26
M  V30 24 1 22 27
M  V30 25 1 23 28
M  V30 26 1 25 29
M  V30 27 1 30 31
M  V30 28 1 31 32
M  V30 29 1 32 33
M  V30 30 1 31 34
M  V30 31 1 31 35
M  V30 32 1 32 36
M  V30 33 1 32 37
M  V30 34 1 38 39
M  V30 35 1 39 40
M  V30 36 1 40 41
M  V30 37 1 39 42
M  V30 38 1 39 43
M  V30 39 1 40 44
M  V30 40 1 40 45
M  V30 41 2 5 30
M  V30 42 2 13 33
M  V30 43 2 4 38
M  V30 44 2 25 41
M  V30 END BOND
M  V30 END CTAB
M  END

$$$$
