
 OpenBabel12032019503D

 12 12  0  0  0  0  0  0  0  0999 V2000
    0.1388    1.3577   -0.0182 C   0  0  0  0  0  0  0  0  0  0  0  0
    1.2804    0.5943   -0.0099 C   0  0  0  0  0  0  0  0  0  0  0  0
    1.2193   -0.7629    0.2453 C   0  0  0  0  0  0  0  0  0  0  0  0
   -0.0957   -1.2220    0.3143 C   0  0  0  0  0  0  0  0  0  0  0  0
   -1.2803   -0.5763    0.0097 C   0  0  0  0  0  0  0  0  0  0  0  0
   -1.0328    0.9029    0.3138 C   0  0  0  0  0  0  0  0  0  0  0  0
    0.2059    2.4501   -0.0328 H   0  0  0  0  0  0  0  0  0  0  0  0
    2.2690    1.0187   -0.0172 H   0  0  0  0  0  0  0  0  0  0  0  0
    2.1280   -1.3206    0.5097 H   0  0  0  0  0  0  0  0  0  0  0  0
   -0.0609   -2.4183    0.4835 H   0  0  0  0  0  0  0  0  0  0  0  0
   -2.2773   -1.0274    0.0173 H   0  0  0  0  0  0  0  0  0  0  0  0
   -1.8608    1.5037    0.3571 H   0  0  0  0  0  0  0  0  0  0  0  0
  1  2  2  0  0  0  0
  1  7  1  0  0  0  0
  2  3  1  0  0  0  0
  2  8  1  0  0  0  0
  3  4  2  0  0  0  0
  3  9  1  0  0  0  0
  4  5  1  0  0  0  0
  4 10  1  0  0  0  0
  5  6  2  0  0  0  0
  5 11  1  0  0  0  0
  6  1  1  0  0  0  0
  6 12  1  0  0  0  0
M  END
