
     RDKit          3D

  0  0  0  0  0  0  0  0  0  0999 V3000
M  V30 BEGIN CTAB
M  V30 COUNTS 168 180 0 0 0
M  V30 BEGIN ATOM
M  V30 1 C -0.0198 -0.6720 4.2092 0
M  V30 2 C -1.1238 0.1183 3.9738 0
M  V30 3 C -0.9755 1.4882 3.9202 0
M  V30 4 C 0.2830 2.0692 4.0752 0
M  V30 5 C 1.3818 1.2516 4.2724 0
M  V30 6 C 1.2385 -0.1152 4.3515 0
M  V30 7 C 2.4301 -0.9413 4.5646 0
M  V30 8 C 0.4671 3.5019 3.9674 0
M  V30 9 C -2.4310 -0.4656 3.7290 0
M  V30 10 H -0.1391 -1.7455 4.2430 0
M  V30 11 H -1.8206 2.1271 3.7360 0
M  V30 12 H 2.3814 1.7084 4.3687 0
M  V30 13 H 3.3540 -0.4353 4.7486 0
M  V30 14 H 1.3098 3.8375 3.4065 0
M  V30 15 H -3.0918 0.0701 3.0697 0
M  V30 16 C -3.5903 -1.7480 -0.9698 0
M  V30 17 C -2.9777 -2.8521 -0.4178 0
M  V30 18 C -2.1480 -3.6250 -1.2024 0
M  V30 19 C -1.8903 -3.2701 -2.5264 0
M  V30 20 C -2.5012 -2.1449 -3.0510 0
M  V30 21 C -3.3656 -1.3932 -2.2878 0
M  V30 22 C -4.0135 -0.2312 -2.9026 0
M  V30 23 C -0.9380 -4.0084 -3.3304 0
M  V30 24 C -3.1557 -3.2190 0.9762 0
M  V30 25 H -4.2368 -1.1369 -0.3563 0
M  V30 26 H -1.6475 -4.4869 -0.7987 0
M  V30 27 H -2.2873 -1.8543 -4.0936 0
M  V30 28 H -3.8527 -0.0791 -3.9488 0
M  V30 29 H -0.2977 -3.4345 -3.9612 0
M  V30 30 H -2.5682 -4.0398 1.3494 0
M  V30 31 C 3.3263 -3.2258 -0.2459 0
M  V30 32 C 3.9181 -2.0611 0.1922 0
M  V30 33 C 4.1097 -1.0294 -0.7024 0
M  V30 34 C 3.6984 -1.1536 -2.0292 0
M  V30 35 C 3.1051 -2.3331 -2.4434 0
M  V30 36 C 2.9186 -3.3719 -1.5597 0
M  V30 37 C 2.2424 -4.6136 -1.9453 0
M  V30 38 C 3.8198 -0.0488 -2.9583 0
M  V30 39 C 4.2784 -1.8897 1.5888 0
M  V30 40 H 3.1512 -4.0153 0.4709 0
M  V30 41 H 4.5423 -0.0978 -0.3837 0
M  V30 42 H 2.7501 -2.4526 -3.4811 0
M  V30 43 H 1.9294 -5.2640 -1.1563 0
M  V30 44 H 3.1389 -0.0374 -3.7790 0
M  V30 45 H 4.4942 -0.8965 1.9428 0
M  V30 46 C 0.7321 4.5056 -0.2999 0
M  V30 47 C -0.5990 4.6201 0.0380 0
M  V30 48 C -1.5549 4.1071 -0.8131 0
M  V30 49 C -1.1879 3.4648 -1.9955 0
M  V30 50 C 0.1562 3.3492 -2.3034 0
M  V30 51 C 1.1173 3.8662 -1.4645 0
M  V30 52 C 2.5473 3.7190 -1.7497 0
M  V30 53 C -2.1946 2.8769 -2.8552 0
M  V30 54 C -1.0313 5.1914 1.3014 0
M  V30 55 H 1.4709 4.8927 0.3872 0
M  V30 56 H -2.5983 4.1565 -0.5575 0
M  V30 57 H 0.4799 2.8138 -3.2120 0
M  V30 58 H 3.2363 4.0101 -0.9853 0
M  V30 59 H -1.8866 2.1749 -3.5966 0
M  V30 60 H -2.0515 5.0170 1.5964 0
M  V30 61 C -6.6441 -2.8997 3.0674 0
M  V30 62 C -6.6033 -1.7909 4.0552 0
M  V30 63 C -5.2447 -1.0768 4.0204 0
M  V30 64 C -4.1366 -2.0887 4.1894 0
M  V30 65 C -4.1972 -3.1483 3.1500 0
M  V30 66 C -5.5080 -3.8232 3.2124 0
M  V30 67 N -4.0325 -2.6444 1.7747 0
M  V30 68 N -2.8308 -1.5530 4.3618 0
M  V30 69 H -6.6368 -2.4671 2.0276 0
M  V30 70 H -7.6159 -3.4695 3.1698 0
M  V30 71 H -6.7854 -2.1915 5.0748 0
M  V30 72 H -7.4050 -1.0717 3.8425 0
M  V30 73 H -5.1909 -0.3339 4.8114 0
M  V30 74 H -5.1367 -0.5497 3.0462 0
M  V30 75 H -4.3423 -2.6083 5.1665 0
M  V30 76 H -3.3908 -3.9055 3.3865 0
M  V30 77 H -5.5580 -4.6080 2.3994 0
M  V30 78 H -5.5952 -4.3765 4.1959 0
M  V30 79 C 5.5391 -5.0269 4.0511 0
M  V30 80 C 4.4004 -5.3826 4.9364 0
M  V30 81 C 3.1926 -4.4766 4.6580 0
M  V30 82 C 3.5846 -3.0209 4.7461 0
M  V30 83 C 4.7124 -2.7165 3.8283 0
M  V30 84 C 5.8629 -3.5934 4.1199 0
M  V30 85 N 4.3642 -2.9168 2.4102 0
M  V30 86 N 2.4041 -2.2573 4.5338 0
M  V30 87 H 5.2809 -5.2984 2.9891 0
M  V30 88 H 6.4484 -5.6404 4.3275 0
M  V30 89 H 4.7048 -5.2773 5.9991 0
M  V30 90 H 4.1195 -6.4325 4.7814 0
M  V30 91 H 2.3961 -4.6850 5.3670 0
M  V30 92 H 2.7854 -4.6842 3.6433 0
M  V30 93 H 3.9274 -2.8298 5.8011 0
M  V30 94 H 5.0464 -1.6489 3.9959 0
M  V30 95 H 6.6933 -3.3648 3.3867 0
M  V30 96 H 6.2664 -3.3483 5.1485 0
M  V30 97 C 0.7654 8.3030 3.5186 0
M  V30 98 C 1.4458 7.7114 4.6993 0
M  V30 99 C 1.3442 6.1800 4.6605 0
M  V30 100 C -0.1007 5.7575 4.5409 0
M  V30 101 C -0.7732 6.3825 3.3730 0
M  V30 102 C -0.6301 7.8508 3.4061 0
M  V30 103 N -0.2423 5.8942 2.0877 0
M  V30 104 N -0.3165 4.3536 4.6043 0
M  V30 105 H 1.3234 8.0160 2.5835 0
M  V30 106 H 0.7979 9.4320 3.5817 0
M  V30 107 H 0.9820 8.0938 5.6330 0
M  V30 108 H 2.5010 8.0137 4.7135 0
M  V30 109 H 1.7790 5.7516 5.5594 0
M  V30 110 H 1.9284 5.8092 3.7888 0
M  V30 111 H -0.6222 6.1662 5.4508 0
M  V30 112 H -1.8762 6.1436 3.4492 0
M  V30 113 H -1.0914 8.2862 2.4696 0
M  V30 114 H -1.2270 8.2596 4.2765 0
M  V30 115 C 2.4087 -6.5919 -5.6581 0
M  V30 116 C 1.1123 -6.4146 -6.3616 0
M  V30 117 C 0.1851 -5.5020 -5.5464 0
M  V30 118 C 0.0256 -6.0417 -4.1451 0
M  V30 119 C 1.3337 -6.2372 -3.4686 0
M  V30 120 C 2.2242 -7.0852 -4.2844 0
M  V30 121 N 2.0303 -4.9670 -3.1967 0
M  V30 122 N -0.8991 -5.3282 -3.3342 0
M  V30 123 H 2.9542 -5.6072 -5.6268 0
M  V30 124 H 3.0661 -7.3076 -6.2370 0
M  V30 125 H 0.6271 -7.4019 -6.5136 0
M  V30 126 H 1.2822 -5.9795 -7.3551 0
M  V30 127 H -0.7873 -5.4288 -6.0254 0
M  V30 128 H 0.6304 -4.4824 -5.5191 0
M  V30 129 H -0.4225 -7.0686 -4.2532 0
M  V30 130 H 1.1350 -6.7821 -2.4976 0
M  V30 131 H 3.2309 -7.1589 -3.7739 0
M  V30 132 H 1.8048 -8.1359 -4.3172 0
M  V30 133 C -6.0401 4.4911 -3.2634 0
M  V30 134 C -6.9589 3.6241 -2.4817 0
M  V30 135 C -6.1936 2.4561 -1.8437 0
M  V30 136 C -5.4034 1.7038 -2.8879 0
M  V30 137 C -4.4854 2.6127 -3.6213 0
M  V30 138 C -5.2449 3.7206 -4.2321 0
M  V30 139 N -3.4635 3.2196 -2.7496 0
M  V30 140 N -4.7817 0.6039 -2.2357 0
M  V30 141 H -5.3463 5.0268 -2.5564 0
M  V30 142 H -6.6310 5.2916 -3.8015 0
M  V30 143 H -7.7540 3.2258 -3.1468 0
M  V30 144 H -7.4551 4.2135 -1.6998 0
M  V30 145 H -6.8861 1.7794 -1.3507 0
M  V30 146 H -5.4986 2.8357 -1.0617 0
M  V30 147 H -6.1428 1.2833 -3.6251 0
M  V30 148 H -3.9858 2.0407 -4.4596 0
M  V30 149 H -4.5221 4.4158 -4.7553 0
M  V30 150 H -5.9282 3.3058 -5.0334 0
M  V30 151 C 4.3127 4.2449 -5.3635 0
M  V30 152 C 4.6982 2.9625 -6.0067 0
M  V30 153 C 4.3199 1.7698 -5.1171 0
M  V30 154 C 4.9072 1.9516 -3.7378 0
M  V30 155 C 4.4672 3.2322 -3.1266 0
M  V30 156 C 4.8450 4.3623 -3.9970 0
M  V30 157 N 3.0109 3.3001 -2.9098 0
M  V30 158 N 4.7627 0.8677 -2.8290 0
M  V30 159 H 3.1896 4.3201 -5.3306 0
M  V30 160 H 4.6738 5.1138 -5.9913 0
M  V30 161 H 5.7927 2.9532 -6.1945 0
M  V30 162 H 4.2026 2.8705 -6.9820 0
M  V30 163 H 4.6871 0.8472 -5.5581 0
M  V30 164 H 3.2109 1.7041 -5.0517 0
M  V30 165 H 6.0195 2.0451 -3.8824 0
M  V30 166 H 5.0097 3.3422 -2.1402 0
M  V30 167 H 4.4770 5.3260 -3.5332 0
M  V30 168 H 5.9735 4.4384 -4.0381 0
M  V30 END ATOM
M  V30 BEGIN BOND
M  V30 1 2 1 2
M  V30 2 1 2 3
M  V30 3 2 3 4
M  V30 4 1 4 5
M  V30 5 2 5 6
M  V30 6 1 6 7
M  V30 7 1 4 8
M  V30 8 1 2 9
M  V30 9 1 6 1
M  V30 10 1 1 10
M  V30 11 1 3 11
M  V30 12 1 5 12
M  V30 13 1 7 13
M  V30 14 1 8 14
M  V30 15 1 9 15
M  V30 16 2 16 17
M  V30 17 1 17 18
M  V30 18 2 18 19
M  V30 19 1 19 20
M  V30 20 2 20 21
M  V30 21 1 21 22
M  V30 22 1 19 23
M  V30 23 1 17 24
M  V30 24 1 21 16
M  V30 25 1 16 25
M  V30 26 1 18 26
M  V30 27 1 20 27
M  V30 28 1 22 28
M  V30 29 1 23 29
M  V30 30 1 24 30
M  V30 31 2 31 32
M  V30 32 1 32 33
M  V30 33 2 33 34
M  V30 34 1 34 35
M  V30 35 2 35 36
M  V30 36 1 36 37
M  V30 37 1 34 38
M  V30 38 1 32 39
M  V30 39 1 36 31
M  V30 40 1 31 40
M  V30 41 1 33 41
M  V30 42 1 35 42
M  V30 43 1 37 43
M  V30 44 1 38 44
M  V30 45 1 39 45
M  V30 46 2 46 47
M  V30 47 1 47 48
M  V30 48 2 48 49
M  V30 49 1 49 50
M  V30 50 2 50 51
M  V30 51 1 51 52
M  V30 52 1 49 53
M  V30 53 1 47 54
M  V30 54 1 51 46
M  V30 55 1 46 55
M  V30 56 1 48 56
M  V30 57 1 50 57
M  V30 58 1 52 58
M  V30 59 1 53 59
M  V30 60 1 54 60
M  V30 61 1 61 62
M  V30 62 1 62 63
M  V30 63 1 63 64
M  V30 64 1 64 65
M  V30 65 1 65 66
M  V30 66 1 65 67
M  V30 67 1 64 68
M  V30 68 1 66 61
M  V30 69 1 61 69
M  V30 70 1 61 70
M  V30 71 1 62 71
M  V30 72 1 62 72
M  V30 73 1 63 73
M  V30 74 1 63 74
M  V30 75 1 64 75
M  V30 76 1 65 76
M  V30 77 1 66 77
M  V30 78 1 66 78
M  V30 79 1 79 80
M  V30 80 1 80 81
M  V30 81 1 81 82
M  V30 82 1 82 83
M  V30 83 1 83 84
M  V30 84 1 83 85
M  V30 85 1 82 86
M  V30 86 1 84 79
M  V30 87 1 79 87
M  V30 88 1 79 88
M  V30 89 1 80 89
M  V30 90 1 80 90
M  V30 91 1 81 91
M  V30 92 1 81 92
M  V30 93 1 82 93
M  V30 94 1 83 94
M  V30 95 1 84 95
M  V30 96 1 84 96
M  V30 97 1 97 98
M  V30 98 1 98 99
M  V30 99 1 99 100
M  V30 100 1 100 101
M  V30 101 1 101 102
M  V30 102 1 101 103
M  V30 103 1 100 104
M  V30 104 1 102 97
M  V30 105 1 97 105
M  V30 106 1 97 106
M  V30 107 1 98 107
M  V30 108 1 98 108
M  V30 109 1 99 109
M  V30 110 1 99 110
M  V30 111 1 100 111
M  V30 112 1 101 112
M  V30 113 1 102 113
M  V30 114 1 102 114
M  V30 115 1 115 116
M  V30 116 1 116 117
M  V30 117 1 117 118
M  V30 118 1 118 119
M  V30 119 1 119 120
M  V30 120 1 119 121
M  V30 121 1 118 122
M  V30 122 1 120 115
M  V30 123 1 115 123
M  V30 124 1 115 124
M  V30 125 1 116 125
M  V30 126 1 116 126
M  V30 127 1 117 127
M  V30 128 1 117 128
M  V30 129 1 118 129
M  V30 130 1 119 130
M  V30 131 1 120 131
M  V30 132 1 120 132
M  V30 133 1 133 134
M  V30 134 1 134 135
M  V30 135 1 135 136
M  V30 136 1 136 137
M  V30 137 1 137 138
M  V30 138 1 137 139
M  V30 139 1 136 140
M  V30 140 1 138 133
M  V30 141 1 133 141
M  V30 142 1 133 142
M  V30 143 1 134 143
M  V30 144 1 134 144
M  V30 145 1 135 145
M  V30 146 1 135 146
M  V30 147 1 136 147
M  V30 148 1 137 148
M  V30 149 1 138 149
M  V30 150 1 138 150
M  V30 151 1 151 152
M  V30 152 1 152 153
M  V30 153 1 153 154
M  V30 154 1 154 155
M  V30 155 1 155 156
M  V30 156 1 155 157
M  V30 157 1 154 158
M  V30 158 1 156 151
M  V30 159 1 151 159
M  V30 160 1 151 160
M  V30 161 1 152 161
M  V30 162 1 152 162
M  V30 163 1 153 163
M  V30 164 1 153 164
M  V30 165 1 154 165
M  V30 166 1 155 166
M  V30 167 1 156 167
M  V30 168 1 156 168
M  V30 169 2 9 68
M  V30 170 2 24 67
M  V30 171 2 7 86
M  V30 172 2 39 85
M  V30 173 2 8 104
M  V30 174 2 54 103
M  V30 175 2 23 122
M  V30 176 2 37 121
M  V30 177 2 22 140
M  V30 178 2 53 139
M  V30 179 2 38 158
M  V30 180 2 52 157
M  V30 END BOND
M  V30 END CTAB
M  END

$$$$
