
     RDKit          3D

  0  0  0  0  0  0  0  0  0  0999 V3000
M  V30 BEGIN CTAB
M  V30 COUNTS 168 180 0 0 0
M  V30 BEGIN ATOM
M  V30 1 C -0.0284 -1.2197 4.6340 0
M  V30 2 C -1.3049 -0.6345 4.4984 0
M  V30 3 C -1.4185 0.7703 4.5140 0
M  V30 4 C -0.2815 1.5871 4.6611 0
M  V30 5 C 0.9830 0.9856 4.8035 0
M  V30 6 C 1.1209 -0.4156 4.7844 0
M  V30 7 C 2.4775 -1.0042 4.8776 0
M  V30 8 C -0.4329 3.0593 4.6084 0
M  V30 9 C -2.5010 -1.4959 4.3087 0
M  V30 10 H 0.0946 -2.2938 4.5927 0
M  V30 11 H -2.3973 1.2098 4.3752 0
M  V30 12 H 1.8513 1.6253 4.8874 0
M  V30 13 H 3.3139 -0.3240 4.9611 0
M  V30 14 H -1.4263 3.4515 4.4444 0
M  V30 15 H -2.3498 -2.5642 4.2483 0
M  V30 16 C -3.8900 -1.6826 -0.9882 0
M  V30 17 C -3.3710 -2.8634 -0.4153 0
M  V30 18 C -2.4791 -3.6571 -1.1649 0
M  V30 19 C -2.0518 -3.2465 -2.4407 0
M  V30 20 C -2.5502 -2.0476 -2.9830 0
M  V30 21 C -3.4931 -1.2739 -2.2786 0
M  V30 22 C -4.0203 -0.0366 -2.9035 0
M  V30 23 C -1.0372 -4.0190 -3.1901 0
M  V30 24 C -3.6955 -3.2595 0.9761 0
M  V30 25 H -4.5667 -1.0612 -0.4140 0
M  V30 26 H -2.0635 -4.5673 -0.7536 0
M  V30 27 H -2.2080 -1.7238 -3.9550 0
M  V30 28 H -3.5791 0.2623 -3.8428 0
M  V30 29 H -0.3653 -3.4637 -3.8290 0
M  V30 30 H -3.2123 -4.1407 1.3767 0
M  V30 31 C 3.4519 -2.9975 -0.1225 0
M  V30 32 C 4.1098 -1.7998 0.2123 0
M  V30 33 C 4.2972 -0.8187 -0.7809 0
M  V30 34 C 3.8227 -1.0237 -2.0924 0
M  V30 35 C 3.1712 -2.2336 -2.4110 0
M  V30 36 C 2.9855 -3.2261 -1.4294 0
M  V30 37 C 2.2829 -4.4944 -1.7186 0
M  V30 38 C 3.9454 0.0344 -3.1209 0
M  V30 39 C 4.5588 -1.5468 1.6014 0
M  V30 40 H 3.2868 -3.7299 0.6572 0
M  V30 41 H 4.7756 0.1227 -0.5450 0
M  V30 42 H 2.7856 -2.4118 -3.4052 0
M  V30 43 H 2.0168 -5.1189 -0.8757 0
M  V30 44 H 3.2712 -0.0269 -3.9627 0
M  V30 45 H 4.8808 -0.5481 1.8655 0
M  V30 46 C 0.8703 4.2370 -0.3436 0
M  V30 47 C -0.4844 4.3341 0.0255 0
M  V30 48 C -1.4757 3.9483 -0.8937 0
M  V30 49 C -1.1306 3.4774 -2.1752 0
M  V30 50 C 0.2303 3.3938 -2.5345 0
M  V30 51 C 1.2372 3.7666 -1.6205 0
M  V30 52 C 2.6743 3.6419 -1.9567 0
M  V30 53 C -2.1787 3.0198 -3.1164 0
M  V30 54 C -0.8895 4.7862 1.3749 0
M  V30 55 H 1.6223 4.5025 0.3881 0
M  V30 56 H -2.5209 3.9750 -0.6144 0
M  V30 57 H 0.5270 3.0112 -3.5013 0
M  V30 58 H 3.3914 3.7454 -1.1527 0
M  V30 59 H -1.8754 2.4898 -4.0094 0
M  V30 60 H -1.9204 4.6392 1.6690 0
M  V30 61 C -7.3366 -2.8630 2.7236 0
M  V30 62 C -7.4183 -1.6522 3.6751 0
M  V30 63 C -6.0745 -0.8931 3.7179 0
M  V30 64 C -4.9202 -1.8278 4.1189 0
M  V30 65 C -4.8094 -3.0272 3.1150 0
M  V30 66 C -6.1528 -3.7912 3.0921 0
M  V30 67 N -4.5366 -2.5835 1.7287 0
M  V30 68 N -3.7128 -0.9795 4.2636 0
M  V30 69 H -7.2081 -2.5067 1.6980 0
M  V30 70 H -8.2724 -3.4233 2.7505 0
M  V30 71 H -7.6767 -1.9914 4.6799 0
M  V30 72 H -8.2105 -0.9771 3.3468 0
M  V30 73 H -6.1339 -0.0665 4.4266 0
M  V30 74 H -5.8571 -0.4593 2.7395 0
M  V30 75 H -5.1537 -2.2319 5.1052 0
M  V30 76 H -4.0273 -3.7058 3.4585 0
M  V30 77 H -6.3300 -4.2381 4.0705 0
M  V30 78 H -6.0914 -4.6072 2.3707 0
M  V30 79 C 6.3521 -4.4514 3.9250 0
M  V30 80 C 5.3439 -5.0406 4.9335 0
M  V30 81 C 3.9586 -4.3739 4.7863 0
M  V30 82 C 4.0592 -2.8459 4.9352 0
M  V30 83 C 5.0460 -2.2480 3.8742 0
M  V30 84 C 6.4318 -2.9086 4.0381 0
M  V30 85 N 4.5957 -2.5159 2.4914 0
M  V30 86 N 2.6848 -2.3032 4.8608 0
M  V30 87 H 6.0468 -4.7218 2.9108 0
M  V30 88 H 7.3393 -4.8872 4.0864 0
M  V30 89 H 5.7127 -4.8921 5.9500 0
M  V30 90 H 5.2517 -6.1169 4.7767 0
M  V30 91 H 3.2719 -4.7658 5.5372 0
M  V30 92 H 3.5316 -4.6095 3.8094 0
M  V30 93 H 4.4523 -2.6339 5.9311 0
M  V30 94 H 5.1466 -1.1744 4.0417 0
M  V30 95 H 6.8489 -2.6334 5.0070 0
M  V30 96 H 7.1071 -2.5213 3.2736 0
M  V30 97 C 0.8755 7.9846 3.3685 0
M  V30 98 C 1.8123 7.4711 4.4801 0
M  V30 99 C 1.8455 5.9282 4.5025 0
M  V30 100 C 0.4344 5.3383 4.6685 0
M  V30 101 C -0.5132 5.8378 3.5239 0
M  V30 102 C -0.5422 7.3814 3.5075 0
M  V30 103 N -0.0523 5.3908 2.1898 0
M  V30 104 N 0.5959 3.8684 4.7527 0
M  V30 105 H 1.2877 7.7119 2.3935 0
M  V30 106 H 0.8213 9.0740 3.3982 0
M  V30 107 H 1.4719 7.8422 5.4485 0
M  V30 108 H 2.8207 7.8570 4.3210 0
M  V30 109 H 2.4813 5.5791 5.3167 0
M  V30 110 H 2.2797 5.5507 3.5745 0
M  V30 111 H 0.0365 5.6862 5.6230 0
M  V30 112 H -1.5256 5.4797 3.7180 0
M  V30 113 H -1.0045 7.7425 4.4265 0
M  V30 114 H -1.1659 7.7199 2.6787 0
M  V30 115 C 2.5448 -6.6418 -5.3637 0
M  V30 116 C 1.2017 -6.5154 -6.1150 0
M  V30 117 C 0.2345 -5.5857 -5.3507 0
M  V30 118 C 0.0204 -6.0994 -3.9057 0
M  V30 119 C 1.3604 -6.2185 -3.1299 0
M  V30 120 C 2.3345 -7.1276 -3.9091 0
M  V30 121 N 2.0261 -4.9074 -2.9417 0
M  V30 122 N -0.9892 -5.3348 -3.1315 0
M  V30 123 H 3.0451 -5.6701 -5.3478 0
M  V30 124 H 3.2057 -7.3310 -5.8920 0
M  V30 125 H 0.7489 -7.5025 -6.2282 0
M  V30 126 H 1.3754 -6.1222 -7.1184 0
M  V30 127 H -0.7256 -5.5364 -5.8661 0
M  V30 128 H 0.6545 -4.5797 -5.3317 0
M  V30 129 H -0.3790 -7.1115 -3.9872 0
M  V30 130 H 1.1508 -6.6813 -2.1624 0
M  V30 131 H 1.9458 -8.1462 -3.9169 0
M  V30 132 H 3.2935 -7.1530 -3.3892 0
M  V30 133 C -5.9528 4.8099 -3.3017 0
M  V30 134 C -6.9618 3.9266 -2.5406 0
M  V30 135 C -6.2711 2.6762 -1.9548 0
M  V30 136 C -5.5501 1.8662 -3.0467 0
M  V30 137 C -4.4982 2.7595 -3.7968 0
M  V30 138 C -5.2027 4.0005 -4.3871 0
M  V30 139 N -3.4517 3.2524 -2.8768 0
M  V30 140 N -5.0166 0.6488 -2.3842 0
M  V30 141 H -5.2280 5.2207 -2.5944 0
M  V30 142 H -6.4667 5.6577 -3.7572 0
M  V30 143 H -7.7621 3.6178 -3.2152 0
M  V30 144 H -7.4219 4.5018 -1.7351 0
M  V30 145 H -7.0055 2.0402 -1.4594 0
M  V30 146 H -5.5448 2.9708 -1.1950 0
M  V30 147 H -6.3024 1.5457 -3.7691 0
M  V30 148 H -4.0576 2.1925 -4.6181 0
M  V30 149 H -5.9060 3.6837 -5.1575 0
M  V30 150 H -4.4608 4.6385 -4.8699 0
M  V30 151 C 4.2232 4.2882 -5.8512 0
M  V30 152 C 4.6212 2.9083 -6.4183 0
M  V30 153 C 4.2940 1.7831 -5.4119 0
M  V30 154 C 4.9923 2.0520 -4.0553 0
M  V30 155 C 4.5521 3.4191 -3.4634 0
M  V30 156 C 4.8744 4.5449 -4.4693 0
M  V30 157 N 3.0953 3.4757 -3.1930 0
M  V30 158 N 4.8605 0.9801 -3.0314 0
M  V30 159 H 3.1363 4.3361 -5.7475 0
M  V30 160 H 4.5107 5.0763 -6.5489 0
M  V30 161 H 5.6896 2.8984 -6.6429 0
M  V30 162 H 4.0927 2.7283 -7.3563 0
M  V30 163 H 4.6227 0.8231 -5.8115 0
M  V30 164 H 3.2134 1.7365 -5.2652 0
M  V30 165 H 6.0613 2.1336 -4.2581 0
M  V30 166 H 5.1193 3.5953 -2.5465 0
M  V30 167 H 5.9555 4.6280 -4.5829 0
M  V30 168 H 4.5187 5.4951 -4.0677 0
M  V30 END ATOM
M  V30 BEGIN BOND
M  V30 1 2 1 2
M  V30 2 1 2 3
M  V30 3 2 3 4
M  V30 4 1 4 5
M  V30 5 2 5 6
M  V30 6 1 6 7
M  V30 7 1 4 8
M  V30 8 1 2 9
M  V30 9 1 6 1
M  V30 10 1 1 10
M  V30 11 1 3 11
M  V30 12 1 5 12
M  V30 13 1 7 13
M  V30 14 1 8 14
M  V30 15 1 9 15
M  V30 16 2 16 17
M  V30 17 1 17 18
M  V30 18 2 18 19
M  V30 19 1 19 20
M  V30 20 2 20 21
M  V30 21 1 21 22
M  V30 22 1 19 23
M  V30 23 1 17 24
M  V30 24 1 21 16
M  V30 25 1 16 25
M  V30 26 1 18 26
M  V30 27 1 20 27
M  V30 28 1 22 28
M  V30 29 1 23 29
M  V30 30 1 24 30
M  V30 31 2 31 32
M  V30 32 1 32 33
M  V30 33 2 33 34
M  V30 34 1 34 35
M  V30 35 2 35 36
M  V30 36 1 36 37
M  V30 37 1 34 38
M  V30 38 1 32 39
M  V30 39 1 36 31
M  V30 40 1 31 40
M  V30 41 1 33 41
M  V30 42 1 35 42
M  V30 43 1 37 43
M  V30 44 1 38 44
M  V30 45 1 39 45
M  V30 46 2 46 47
M  V30 47 1 47 48
M  V30 48 2 48 49
M  V30 49 1 49 50
M  V30 50 2 50 51
M  V30 51 1 51 52
M  V30 52 1 49 53
M  V30 53 1 47 54
M  V30 54 1 51 46
M  V30 55 1 46 55
M  V30 56 1 48 56
M  V30 57 1 50 57
M  V30 58 1 52 58
M  V30 59 1 53 59
M  V30 60 1 54 60
M  V30 61 1 61 62
M  V30 62 1 62 63
M  V30 63 1 63 64
M  V30 64 1 64 65
M  V30 65 1 65 66
M  V30 66 1 65 67
M  V30 67 1 64 68
M  V30 68 1 66 61
M  V30 69 1 61 69
M  V30 70 1 61 70
M  V30 71 1 62 71
M  V30 72 1 62 72
M  V30 73 1 63 73
M  V30 74 1 63 74
M  V30 75 1 64 75
M  V30 76 1 65 76
M  V30 77 1 66 77
M  V30 78 1 66 78
M  V30 79 1 79 80
M  V30 80 1 80 81
M  V30 81 1 81 82
M  V30 82 1 82 83
M  V30 83 1 83 84
M  V30 84 1 83 85
M  V30 85 1 82 86
M  V30 86 1 84 79
M  V30 87 1 79 87
M  V30 88 1 79 88
M  V30 89 1 80 89
M  V30 90 1 80 90
M  V30 91 1 81 91
M  V30 92 1 81 92
M  V30 93 1 82 93
M  V30 94 1 83 94
M  V30 95 1 84 95
M  V30 96 1 84 96
M  V30 97 1 97 98
M  V30 98 1 98 99
M  V30 99 1 99 100
M  V30 100 1 100 101
M  V30 101 1 101 102
M  V30 102 1 101 103
M  V30 103 1 100 104
M  V30 104 1 102 97
M  V30 105 1 97 105
M  V30 106 1 97 106
M  V30 107 1 98 107
M  V30 108 1 98 108
M  V30 109 1 99 109
M  V30 110 1 99 110
M  V30 111 1 100 111
M  V30 112 1 101 112
M  V30 113 1 102 113
M  V30 114 1 102 114
M  V30 115 1 115 116
M  V30 116 1 116 117
M  V30 117 1 117 118
M  V30 118 1 118 119
M  V30 119 1 119 120
M  V30 120 1 119 121
M  V30 121 1 118 122
M  V30 122 1 120 115
M  V30 123 1 115 123
M  V30 124 1 115 124
M  V30 125 1 116 125
M  V30 126 1 116 126
M  V30 127 1 117 127
M  V30 128 1 117 128
M  V30 129 1 118 129
M  V30 130 1 119 130
M  V30 131 1 120 131
M  V30 132 1 120 132
M  V30 133 1 133 134
M  V30 134 1 134 135
M  V30 135 1 135 136
M  V30 136 1 136 137
M  V30 137 1 137 138
M  V30 138 1 137 139
M  V30 139 1 136 140
M  V30 140 1 138 133
M  V30 141 1 133 141
M  V30 142 1 133 142
M  V30 143 1 134 143
M  V30 144 1 134 144
M  V30 145 1 135 145
M  V30 146 1 135 146
M  V30 147 1 136 147
M  V30 148 1 137 148
M  V30 149 1 138 149
M  V30 150 1 138 150
M  V30 151 1 151 152
M  V30 152 1 152 153
M  V30 153 1 153 154
M  V30 154 1 154 155
M  V30 155 1 155 156
M  V30 156 1 155 157
M  V30 157 1 154 158
M  V30 158 1 156 151
M  V30 159 1 151 159
M  V30 160 1 151 160
M  V30 161 1 152 161
M  V30 162 1 152 162
M  V30 163 1 153 163
M  V30 164 1 153 164
M  V30 165 1 154 165
M  V30 166 1 155 166
M  V30 167 1 156 167
M  V30 168 1 156 168
M  V30 169 2 9 68
M  V30 170 2 24 67
M  V30 171 2 7 86
M  V30 172 2 39 85
M  V30 173 2 8 104
M  V30 174 2 54 103
M  V30 175 2 23 122
M  V30 176 2 37 121
M  V30 177 2 22 140
M  V30 178 2 53 139
M  V30 179 2 38 158
M  V30 180 2 52 157
M  V30 END BOND
M  V30 END CTAB
M  END

$$$$
