
     RDKit          3D

  0  0  0  0  0  0  0  0  0  0999 V3000
M  V30 BEGIN CTAB
M  V30 COUNTS 168 180 0 0 0
M  V30 BEGIN ATOM
M  V30 1 C -1.5137 0.8603 4.6608 0
M  V30 2 C -1.4207 -0.5460 4.6587 0
M  V30 3 C -0.1511 -1.1524 4.7016 0
M  V30 4 C 1.0186 -0.3658 4.7523 0
M  V30 5 C 0.9077 1.0361 4.7610 0
M  V30 6 C -0.3568 1.6560 4.7125 0
M  V30 7 C -0.4873 3.1307 4.6998 0
M  V30 8 C 2.3627 -0.9880 4.7983 0
M  V30 9 C -2.6408 -1.3870 4.6093 0
M  V30 10 H -2.4907 1.3267 4.6185 0
M  V30 11 H -0.0615 -2.2316 4.6971 0
M  V30 12 H 1.7977 1.6529 4.7977 0
M  V30 13 H -1.4790 3.5607 4.6502 0
M  V30 14 H 3.2270 -0.3424 4.8853 0
M  V30 15 H -2.5225 -2.4617 4.5995 0
M  V30 16 C -2.6908 -4.0527 -0.5934 0
M  V30 17 C -3.5343 -3.1449 0.0756 0
M  V30 18 C -4.0168 -2.0105 -0.6126 0
M  V30 19 C -3.6644 -1.7899 -1.9616 0
M  V30 20 C -2.8185 -2.7064 -2.6110 0
M  V30 21 C -2.3272 -3.8397 -1.9351 0
M  V30 22 C -1.4217 -4.7991 -2.6125 0
M  V30 23 C -4.1656 -0.6211 -2.7245 0
M  V30 24 C -3.8986 -3.4172 1.4877 0
M  V30 25 H -2.3152 -4.9215 -0.0689 0
M  V30 26 H -4.6666 -1.3058 -0.1046 0
M  V30 27 H -2.5361 -2.5431 -3.6442 0
M  V30 28 H -1.0681 -5.6593 -2.0598 0
M  V30 29 H -3.8999 -0.5458 -3.7707 0
M  V30 30 H -3.5254 -4.3224 1.9496 0
M  V30 31 C 4.4200 -0.7657 -0.9295 0
M  V30 32 C 4.1772 -1.7704 0.0238 0
M  V30 33 C 3.4763 -2.9320 -0.3588 0
M  V30 34 C 3.0205 -3.0923 -1.6791 0
M  V30 35 C 3.2490 -2.0667 -2.6183 0
M  V30 36 C 3.9503 -0.9039 -2.2509 0
M  V30 37 C 4.1607 0.1687 -3.2481 0
M  V30 38 C 2.3078 -4.3342 -2.0585 0
M  V30 39 C 4.6495 -1.5912 1.4163 0
M  V30 40 H 4.9544 0.1345 -0.6513 0
M  V30 41 H 3.2964 -3.7066 0.3770 0
M  V30 42 H 2.8857 -2.1861 -3.6322 0
M  V30 43 H 3.5512 0.1398 -4.1404 0
M  V30 44 H 2.0896 -5.0633 -1.2885 0
M  V30 45 H 5.1865 -0.6875 1.6762 0
M  V30 46 C -1.3685 3.8282 -0.8852 0
M  V30 47 C -0.4234 4.3507 0.0138 0
M  V30 48 C 0.9380 4.3660 -0.3476 0
M  V30 49 C 1.3539 3.8709 -1.5967 0
M  V30 50 C 0.3955 3.3540 -2.4923 0
M  V30 51 C -0.9679 3.3290 -2.1418 0
M  V30 52 C -1.9663 2.7752 -3.0876 0
M  V30 53 C 2.7933 3.9014 -1.9408 0
M  V30 54 C -0.8722 4.8655 1.3280 0
M  V30 55 H -2.4179 3.8065 -0.6153 0
M  V30 56 H 1.6653 4.7648 0.3499 0
M  V30 57 H 0.7205 2.9768 -3.4543 0
M  V30 58 H -1.6262 2.3350 -4.0164 0
M  V30 59 H 3.4928 4.2396 -1.1866 0
M  V30 60 H -1.9176 4.7729 1.5940 0
M  V30 61 C -7.5239 -2.7698 3.2189 0
M  V30 62 C -7.5821 -1.5048 4.0930 0
M  V30 63 C -6.2421 -0.7456 4.0806 0
M  V30 64 C -5.0760 -1.6602 4.5180 0
M  V30 65 C -4.9950 -2.9357 3.5978 0
M  V30 66 C -6.3504 -3.6815 3.6305 0
M  V30 67 N -4.6559 -2.6048 2.1838 0
M  V30 68 N -3.8320 -0.8332 4.5856 0
M  V30 69 H -7.4178 -2.4837 2.1718 0
M  V30 70 H -8.4619 -3.3189 3.3083 0
M  V30 71 H -7.8282 -1.7859 5.1179 0
M  V30 72 H -8.3788 -0.8499 3.7385 0
M  V30 73 H -6.3099 0.1100 4.7539 0
M  V30 74 H -6.0524 -0.3537 3.0804 0
M  V30 75 H -5.2918 -1.9937 5.5342 0
M  V30 76 H -4.2391 -3.6091 4.0036 0
M  V30 77 H -6.5276 -4.0581 4.6391 0
M  V30 78 H -6.3132 -4.5499 2.9711 0
M  V30 79 C 6.1567 -4.5260 3.7727 0
M  V30 80 C 5.1269 -5.1079 4.7595 0
M  V30 81 C 3.7523 -4.4251 4.6224 0
M  V30 82 C 3.8773 -2.8943 4.7825 0
M  V30 83 C 4.8837 -2.3053 3.7260 0
M  V30 84 C 6.2584 -2.9907 3.8983 0
M  V30 85 N 4.4162 -2.5066 2.3272 0
M  V30 86 N 2.5134 -2.2907 4.7381 0
M  V30 87 H 5.8735 -4.7934 2.7537 0
M  V30 88 H 7.1338 -4.9722 3.9606 0
M  V30 89 H 5.4928 -4.9772 5.7790 0
M  V30 90 H 5.0221 -6.1799 4.5893 0
M  V30 91 H 3.0782 -4.8198 5.3839 0
M  V30 92 H 3.3175 -4.6653 3.6509 0
M  V30 93 H 4.2819 -2.7044 5.7781 0
M  V30 94 H 5.0099 -1.2387 3.9170 0
M  V30 95 H 6.6648 -2.7370 4.8785 0
M  V30 96 H 6.9599 -2.6078 3.1557 0
M  V30 97 C 0.8790 8.0553 3.4071 0
M  V30 98 C 1.7834 7.5399 4.5401 0
M  V30 99 C 1.8459 6.0018 4.5535 0
M  V30 100 C 0.4332 5.3868 4.6630 0
M  V30 101 C -0.4930 5.8943 3.4954 0
M  V30 102 C -0.5319 7.4393 3.4941 0
M  V30 103 N -0.0244 5.4183 2.1638 0
M  V30 104 N 0.5736 3.9029 4.7274 0
M  V30 105 H 1.3283 7.8107 2.4436 0
M  V30 106 H 0.8074 9.1419 3.4626 0
M  V30 107 H 1.4005 7.8948 5.4981 0
M  V30 108 H 2.7880 7.9472 4.4217 0
M  V30 109 H 2.4547 5.6745 5.3977 0
M  V30 110 H 2.3361 5.6477 3.6450 0
M  V30 111 H 0.0027 5.7186 5.6095 0
M  V30 112 H -1.5087 5.5381 3.6745 0
M  V30 113 H -1.0170 7.7852 4.4081 0
M  V30 114 H -1.1385 7.7934 2.6594 0
M  V30 115 C 2.5283 -6.1745 -5.8367 0
M  V30 116 C 1.2561 -5.8885 -6.6527 0
M  V30 117 C 0.2997 -4.9535 -5.8902 0
M  V30 118 C -0.0661 -5.5320 -4.5047 0
M  V30 119 C 1.2284 -5.8149 -3.6546 0
M  V30 120 C 2.1829 -6.7411 -4.4441 0
M  V30 121 N 1.9532 -4.5618 -3.3013 0
M  V30 122 N -1.0302 -4.5993 -3.8486 0
M  V30 123 H 3.1049 -5.2548 -5.7280 0
M  V30 124 H 3.1555 -6.8857 -6.3753 0
M  V30 125 H 0.7465 -6.8285 -6.8702 0
M  V30 126 H 1.5267 -5.4375 -7.6082 0
M  V30 127 H -0.6076 -4.8109 -6.4789 0
M  V30 128 H 0.7656 -3.9739 -5.7716 0
M  V30 129 H -0.5817 -6.4797 -4.6699 0
M  V30 130 H 0.9389 -6.3388 -2.7422 0
M  V30 131 H 1.7135 -7.7187 -4.5632 0
M  V30 132 H 3.1010 -6.8969 -3.8756 0
M  V30 133 C -5.7163 4.3452 -3.6847 0
M  V30 134 C -6.7974 3.5813 -2.8977 0
M  V30 135 C -6.1937 2.4239 -2.0773 0
M  V30 136 C -5.3914 1.4652 -2.9853 0
M  V30 137 C -4.2499 2.2441 -3.7409 0
M  V30 138 C -4.8784 3.3926 -4.5650 0
M  V30 139 N -3.2467 2.8179 -2.8027 0
M  V30 140 N -4.9129 0.3054 -2.1739 0
M  V30 141 H -5.0629 4.8704 -2.9865 0
M  V30 142 H -6.1886 5.1018 -4.3126 0
M  V30 143 H -7.5352 3.1817 -3.5956 0
M  V30 144 H -7.3208 4.2693 -2.2327 0
M  V30 145 H -6.9980 1.8762 -1.5842 0
M  V30 146 H -5.5482 2.8261 -1.2947 0
M  V30 147 H -6.0837 1.0726 -3.7326 0
M  V30 148 H -3.7546 1.5625 -4.4339 0
M  V30 149 H -5.5167 2.9685 -5.3418 0
M  V30 150 H -4.0947 3.9576 -5.0717 0
M  V30 151 C 4.4631 4.5332 -5.7582 0
M  V30 152 C 4.9775 3.2109 -6.3548 0
M  V30 153 C 4.6475 2.0209 -5.4361 0
M  V30 154 C 5.2323 2.2465 -4.0133 0
M  V30 155 C 4.7035 3.5784 -3.3913 0
M  V30 156 C 5.0194 4.7599 -4.3375 0
M  V30 157 N 3.2346 3.5373 -3.1227 0
M  V30 158 N 5.0537 1.1133 -3.0454 0
M  V30 159 H 3.3728 4.5182 -5.7284 0
M  V30 160 H 4.7570 5.3632 -6.4016 0
M  V30 161 H 6.0576 3.2724 -6.4962 0
M  V30 162 H 4.5292 3.0525 -7.3363 0
M  V30 163 H 5.0620 1.1084 -5.8671 0
M  V30 164 H 3.5639 1.9052 -5.3878 0
M  V30 165 H 6.3104 2.3669 -4.1311 0
M  V30 166 H 5.2399 3.7469 -2.4554 0
M  V30 167 H 6.1010 4.8903 -4.3963 0
M  V30 168 H 4.6104 5.6838 -3.9264 0
M  V30 END ATOM
M  V30 BEGIN BOND
M  V30 1 2 1 2
M  V30 2 1 2 3
M  V30 3 2 3 4
M  V30 4 1 4 5
M  V30 5 2 5 6
M  V30 6 1 6 7
M  V30 7 1 4 8
M  V30 8 1 2 9
M  V30 9 1 6 1
M  V30 10 1 1 10
M  V30 11 1 3 11
M  V30 12 1 5 12
M  V30 13 1 7 13
M  V30 14 1 8 14
M  V30 15 1 9 15
M  V30 16 2 16 17
M  V30 17 1 17 18
M  V30 18 2 18 19
M  V30 19 1 19 20
M  V30 20 2 20 21
M  V30 21 1 21 22
M  V30 22 1 19 23
M  V30 23 1 17 24
M  V30 24 1 21 16
M  V30 25 1 16 25
M  V30 26 1 18 26
M  V30 27 1 20 27
M  V30 28 1 22 28
M  V30 29 1 23 29
M  V30 30 1 24 30
M  V30 31 2 31 32
M  V30 32 1 32 33
M  V30 33 2 33 34
M  V30 34 1 34 35
M  V30 35 2 35 36
M  V30 36 1 36 37
M  V30 37 1 34 38
M  V30 38 1 32 39
M  V30 39 1 36 31
M  V30 40 1 31 40
M  V30 41 1 33 41
M  V30 42 1 35 42
M  V30 43 1 37 43
M  V30 44 1 38 44
M  V30 45 1 39 45
M  V30 46 2 46 47
M  V30 47 1 47 48
M  V30 48 2 48 49
M  V30 49 1 49 50
M  V30 50 2 50 51
M  V30 51 1 51 52
M  V30 52 1 49 53
M  V30 53 1 47 54
M  V30 54 1 51 46
M  V30 55 1 46 55
M  V30 56 1 48 56
M  V30 57 1 50 57
M  V30 58 1 52 58
M  V30 59 1 53 59
M  V30 60 1 54 60
M  V30 61 1 61 62
M  V30 62 1 62 63
M  V30 63 1 63 64
M  V30 64 1 64 65
M  V30 65 1 65 66
M  V30 66 1 65 67
M  V30 67 1 64 68
M  V30 68 1 66 61
M  V30 69 1 61 69
M  V30 70 1 61 70
M  V30 71 1 62 71
M  V30 72 1 62 72
M  V30 73 1 63 73
M  V30 74 1 63 74
M  V30 75 1 64 75
M  V30 76 1 65 76
M  V30 77 1 66 77
M  V30 78 1 66 78
M  V30 79 1 79 80
M  V30 80 1 80 81
M  V30 81 1 81 82
M  V30 82 1 82 83
M  V30 83 1 83 84
M  V30 84 1 83 85
M  V30 85 1 82 86
M  V30 86 1 84 79
M  V30 87 1 79 87
M  V30 88 1 79 88
M  V30 89 1 80 89
M  V30 90 1 80 90
M  V30 91 1 81 91
M  V30 92 1 81 92
M  V30 93 1 82 93
M  V30 94 1 83 94
M  V30 95 1 84 95
M  V30 96 1 84 96
M  V30 97 1 97 98
M  V30 98 1 98 99
M  V30 99 1 99 100
M  V30 100 1 100 101
M  V30 101 1 101 102
M  V30 102 1 101 103
M  V30 103 1 100 104
M  V30 104 1 102 97
M  V30 105 1 97 105
M  V30 106 1 97 106
M  V30 107 1 98 107
M  V30 108 1 98 108
M  V30 109 1 99 109
M  V30 110 1 99 110
M  V30 111 1 100 111
M  V30 112 1 101 112
M  V30 113 1 102 113
M  V30 114 1 102 114
M  V30 115 1 115 116
M  V30 116 1 116 117
M  V30 117 1 117 118
M  V30 118 1 118 119
M  V30 119 1 119 120
M  V30 120 1 119 121
M  V30 121 1 118 122
M  V30 122 1 120 115
M  V30 123 1 115 123
M  V30 124 1 115 124
M  V30 125 1 116 125
M  V30 126 1 116 126
M  V30 127 1 117 127
M  V30 128 1 117 128
M  V30 129 1 118 129
M  V30 130 1 119 130
M  V30 131 1 120 131
M  V30 132 1 120 132
M  V30 133 1 133 134
M  V30 134 1 134 135
M  V30 135 1 135 136
M  V30 136 1 136 137
M  V30 137 1 137 138
M  V30 138 1 137 139
M  V30 139 1 136 140
M  V30 140 1 138 133
M  V30 141 1 133 141
M  V30 142 1 133 142
M  V30 143 1 134 143
M  V30 144 1 134 144
M  V30 145 1 135 145
M  V30 146 1 135 146
M  V30 147 1 136 147
M  V30 148 1 137 148
M  V30 149 1 138 149
M  V30 150 1 138 150
M  V30 151 1 151 152
M  V30 152 1 152 153
M  V30 153 1 153 154
M  V30 154 1 154 155
M  V30 155 1 155 156
M  V30 156 1 155 157
M  V30 157 1 154 158
M  V30 158 1 156 151
M  V30 159 1 151 159
M  V30 160 1 151 160
M  V30 161 1 152 161
M  V30 162 1 152 162
M  V30 163 1 153 163
M  V30 164 1 153 164
M  V30 165 1 154 165
M  V30 166 1 155 166
M  V30 167 1 156 167
M  V30 168 1 156 168
M  V30 169 2 9 68
M  V30 170 2 24 67
M  V30 171 2 8 86
M  V30 172 2 39 85
M  V30 173 2 7 104
M  V30 174 2 54 103
M  V30 175 2 22 122
M  V30 176 2 38 121
M  V30 177 2 23 140
M  V30 178 2 52 139
M  V30 179 2 37 158
M  V30 180 2 53 157
M  V30 END BOND
M  V30 END CTAB
M  END

$$$$
