
     RDKit          3D

  0  0  0  0  0  0  0  0  0  0999 V3000
M  V30 BEGIN CTAB
M  V30 COUNTS 168 180 0 0 0
M  V30 BEGIN ATOM
M  V30 1 C -0.6683 -1.4089 4.6366 0
M  V30 2 C -1.9133 -0.7510 4.5692 0
M  V30 3 C -1.9408 0.6499 4.4169 0
M  V30 4 C -0.7447 1.3906 4.3316 0
M  V30 5 C 0.4886 0.7232 4.4692 0
M  V30 6 C 0.5351 -0.6757 4.6189 0
M  V30 7 C 1.8302 -1.3844 4.7227 0
M  V30 8 C -0.8063 2.8397 4.0311 0
M  V30 9 C -3.1692 -1.5422 4.6255 0
M  V30 10 H -0.6321 -2.4857 4.7183 0
M  V30 11 H -2.9012 1.1377 4.3160 0
M  V30 12 H 1.4138 1.2833 4.4092 0
M  V30 13 H 1.8791 -2.4036 4.3646 0
M  V30 14 H -1.7821 3.3014 3.9777 0
M  V30 15 H -3.0823 -2.6145 4.5298 0
M  V30 16 C -4.6761 -3.1646 0.1018 0
M  V30 17 C -4.1448 -4.1301 0.9807 0
M  V30 18 C -3.2068 -5.0604 0.4919 0
M  V30 19 C -2.7466 -4.9843 -0.8367 0
M  V30 20 C -3.2602 -3.9882 -1.6916 0
M  V30 21 C -4.2505 -3.0931 -1.2391 0
M  V30 22 C -4.8038 -2.0731 -2.1642 0
M  V30 23 C -1.6930 -5.9009 -1.3285 0
M  V30 24 C -4.5033 -4.1355 2.4183 0
M  V30 25 H -5.3906 -2.4386 0.4707 0
M  V30 26 H -2.7816 -5.8140 1.1411 0
M  V30 27 H -2.8925 -3.9140 -2.7049 0
M  V30 28 H -4.3500 -1.9884 -3.1407 0
M  V30 29 H -1.0624 -5.5513 -2.1336 0
M  V30 30 H -4.0507 -4.8801 3.0593 0
M  V30 31 C 3.0560 -3.7735 0.9314 0
M  V30 32 C 3.6647 -2.5144 0.7714 0
M  V30 33 C 3.7009 -1.9253 -0.5057 0
M  V30 34 C 3.1199 -2.5693 -1.6137 0
M  V30 35 C 2.5062 -3.8264 -1.4373 0
M  V30 36 C 2.4753 -4.4370 -0.1676 0
M  V30 37 C 1.8198 -5.7457 0.0500 0
M  V30 38 C 3.0954 -1.9159 -2.9417 0
M  V30 39 C 4.2324 -1.7753 1.9212 0
M  V30 40 H 3.0225 -4.2088 1.9209 0
M  V30 41 H 4.1432 -0.9480 -0.6487 0
M  V30 42 H 2.0355 -4.3325 -2.2689 0
M  V30 43 H 1.6878 -6.0750 1.0722 0
M  V30 44 H 2.3557 -2.2716 -3.6438 0
M  V30 45 H 4.5408 -0.7505 1.7603 0
M  V30 46 C 0.1618 2.7849 -1.2514 0
M  V30 47 C -1.1514 2.9297 -0.7645 0
M  V30 48 C -2.2125 2.3114 -1.4543 0
M  V30 49 C -1.9734 1.5641 -2.6253 0
M  V30 50 C -0.6531 1.4341 -3.1008 0
M  V30 51 C 0.4215 2.0328 -2.4136 0
M  V30 52 C 1.8226 1.8446 -2.8562 0
M  V30 53 C -3.0767 0.8713 -3.3304 0
M  V30 54 C -1.4255 3.6747 0.4873 0
M  V30 55 H 0.9710 3.2319 -0.6881 0
M  V30 56 H -3.2243 2.3750 -1.0757 0
M  V30 57 H -0.4352 0.8433 -3.9797 0
M  V30 58 H 2.6136 2.1626 -2.1894 0
M  V30 59 H -2.8218 0.1815 -4.1238 0
M  V30 60 H -2.3920 3.5465 0.9565 0
M  V30 61 C -8.1039 -2.9787 3.8901 0
M  V30 62 C -8.0863 -1.5195 4.3896 0
M  V30 63 C -6.6842 -0.8916 4.2251 0
M  V30 64 C -5.6053 -1.7331 4.9318 0
M  V30 65 C -5.6005 -3.2023 4.3774 0
M  V30 66 C -7.0013 -3.8239 4.5750 0
M  V30 67 N -5.3106 -3.2306 2.9268 0
M  V30 68 N -4.3339 -0.9623 4.8417 0
M  V30 69 H -7.9452 -2.9897 2.8083 0
M  V30 70 H -9.0829 -3.4246 4.0719 0
M  V30 71 H -8.3787 -1.4881 5.4409 0
M  V30 72 H -8.8174 -0.9310 3.8324 0
M  V30 73 H -6.6788 0.1194 4.6340 0
M  V30 74 H -6.4327 -0.8084 3.1653 0
M  V30 75 H -5.8720 -1.7792 5.9891 0
M  V30 76 H -4.8702 -3.7931 4.9337 0
M  V30 77 H -7.2130 -3.9071 5.6415 0
M  V30 78 H -7.0094 -4.8347 4.1646 0
M  V30 79 C 6.2375 -3.6077 5.0957 0
M  V30 80 C 5.3302 -3.6254 6.3466 0
M  V30 81 C 3.9554 -2.9919 6.0405 0
M  V30 82 C 4.1390 -1.5597 5.4885 0
M  V30 83 C 5.0063 -1.5461 4.1999 0
M  V30 84 C 6.3806 -2.1783 4.5112 0
M  V30 85 N 4.4022 -2.3354 3.0999 0
M  V30 86 N 2.8653 -0.8249 5.3167 0
M  V30 87 H 5.8109 -4.2637 4.3327 0
M  V30 88 H 7.2220 -4.0076 5.3433 0
M  V30 89 H 5.8126 -3.0756 7.1572 0
M  V30 90 H 5.1935 -4.6527 6.6895 0
M  V30 91 H 3.3461 -2.9593 6.9447 0
M  V30 92 H 3.4310 -3.6084 5.3098 0
M  V30 93 H 4.6963 -1.0012 6.2427 0
M  V30 94 H 5.1497 -0.5066 3.8953 0
M  V30 95 H 6.9170 -1.5446 5.2182 0
M  V30 96 H 6.9740 -2.2145 3.5961 0
M  V30 97 C 0.5958 7.2183 1.4693 0
M  V30 98 C 1.6307 6.8993 2.5673 0
M  V30 99 C 1.5950 5.4027 2.9476 0
M  V30 100 C 0.1833 4.9656 3.3786 0
M  V30 101 C -0.8562 5.2556 2.2406 0
M  V30 102 C -0.8224 6.7577 1.8844 0
M  V30 103 N -0.5458 4.5103 0.9982 0
M  V30 104 N 0.2752 3.5430 3.7713 0
M  V30 105 H 0.8819 6.7117 0.5437 0
M  V30 106 H 0.5930 8.2886 1.2579 0
M  V30 107 H 1.4229 7.5035 3.4520 0
M  V30 108 H 2.6307 7.1656 2.2201 0
M  V30 109 H 2.2981 5.2047 3.7574 0
M  V30 110 H 1.9104 4.7930 2.0984 0
M  V30 111 H -0.0935 5.5442 4.2613 0
M  V30 112 H -1.8577 5.0081 2.5961 0
M  V30 113 H -1.1596 7.3398 2.7423 0
M  V30 114 H -1.5216 6.9487 1.0689 0
M  V30 115 C 1.9851 -8.9615 -2.6347 0
M  V30 116 C 0.6245 -9.1195 -3.3491 0
M  V30 117 C -0.3634 -8.0216 -2.8989 0
M  V30 118 C -0.5255 -8.0447 -1.3603 0
M  V30 119 C 0.8331 -7.8422 -0.6361 0
M  V30 120 C 1.8208 -8.9381 -1.0941 0
M  V30 121 N 1.4467 -6.5268 -0.9418 0
M  V30 122 N -1.5648 -7.1206 -0.8449 0
M  V30 123 H 2.4577 -8.0303 -2.9580 0
M  V30 124 H 2.6536 -9.7742 -2.9235 0
M  V30 125 H 0.2047 -10.1025 -3.1265 0
M  V30 126 H 0.7669 -9.0661 -4.4300 0
M  V30 127 H -1.3351 -8.1738 -3.3708 0
M  V30 128 H 0.0159 -7.0510 -3.2199 0
M  V30 129 H -0.8695 -9.0459 -1.0955 0
M  V30 130 H 0.6637 -7.9446 0.4383 0
M  V30 131 H 1.4644 -9.9096 -0.7500 0
M  V30 132 H 2.7908 -8.7674 -0.6246 0
M  V30 133 C -6.8972 2.4566 -3.7129 0
M  V30 134 C -7.8544 1.7807 -2.7109 0
M  V30 135 C -7.1109 0.7260 -1.8649 0
M  V30 136 C -6.4171 -0.3228 -2.7518 0
M  V30 137 C -5.4158 0.3667 -3.7426 0
M  V30 138 C -6.1735 1.4097 -4.5933 0
M  V30 139 N -4.3382 1.0857 -3.0250 0
M  V30 140 N -5.8411 -1.3330 -1.8308 0
M  V30 141 H -6.1537 3.0397 -3.1636 0
M  V30 142 H -7.4482 3.1565 -4.3428 0
M  V30 143 H -8.6746 1.3032 -3.2496 0
M  V30 144 H -8.2932 2.5335 -2.0535 0
M  V30 145 H -7.8085 0.2265 -1.1920 0
M  V30 146 H -6.3603 1.2113 -1.2385 0
M  V30 147 H -7.1903 -0.8201 -3.3394 0
M  V30 148 H -4.9995 -0.3855 -4.4143 0
M  V30 149 H -6.9007 0.8995 -5.2254 0
M  V30 150 H -5.4685 1.9144 -5.2554 0
M  V30 151 C 2.9191 1.2305 -6.9111 0
M  V30 152 C 3.2842 -0.2641 -7.0384 0
M  V30 153 C 3.1109 -0.9929 -5.6879 0
M  V30 154 C 3.9522 -0.3008 -4.5864 0
M  V30 155 C 3.5415 1.1900 -4.4281 0
M  V30 156 C 3.7205 1.9176 -5.7770 0
M  V30 157 N 2.1204 1.3390 -4.0346 0
M  V30 158 N 3.9635 -0.9744 -3.2594 0
M  V30 159 H 1.8508 1.3239 -6.7003 0
M  V30 160 H 3.1021 1.7419 -7.8573 0
M  V30 161 H 4.3179 -0.3614 -7.3754 0
M  V30 162 H 2.6526 -0.7348 -7.7940 0
M  V30 163 H 3.4206 -2.0337 -5.7880 0
M  V30 164 H 2.0566 -0.9799 -5.4054 0
M  V30 165 H 4.9890 -0.3020 -4.9268 0
M  V30 166 H 4.1967 1.6548 -3.6875 0
M  V30 167 H 4.7793 1.9403 -6.0365 0
M  V30 168 H 3.3918 2.9526 -5.6711 0
M  V30 END ATOM
M  V30 BEGIN BOND
M  V30 1 2 1 2
M  V30 2 1 2 3
M  V30 3 2 3 4
M  V30 4 1 4 5
M  V30 5 2 5 6
M  V30 6 1 6 7
M  V30 7 1 4 8
M  V30 8 1 2 9
M  V30 9 1 6 1
M  V30 10 1 1 10
M  V30 11 1 3 11
M  V30 12 1 5 12
M  V30 13 1 7 13
M  V30 14 1 8 14
M  V30 15 1 9 15
M  V30 16 2 16 17
M  V30 17 1 17 18
M  V30 18 2 18 19
M  V30 19 1 19 20
M  V30 20 2 20 21
M  V30 21 1 21 22
M  V30 22 1 19 23
M  V30 23 1 17 24
M  V30 24 1 21 16
M  V30 25 1 16 25
M  V30 26 1 18 26
M  V30 27 1 20 27
M  V30 28 1 22 28
M  V30 29 1 23 29
M  V30 30 1 24 30
M  V30 31 2 31 32
M  V30 32 1 32 33
M  V30 33 2 33 34
M  V30 34 1 34 35
M  V30 35 2 35 36
M  V30 36 1 36 37
M  V30 37 1 34 38
M  V30 38 1 32 39
M  V30 39 1 36 31
M  V30 40 1 31 40
M  V30 41 1 33 41
M  V30 42 1 35 42
M  V30 43 1 37 43
M  V30 44 1 38 44
M  V30 45 1 39 45
M  V30 46 2 46 47
M  V30 47 1 47 48
M  V30 48 2 48 49
M  V30 49 1 49 50
M  V30 50 2 50 51
M  V30 51 1 51 52
M  V30 52 1 49 53
M  V30 53 1 47 54
M  V30 54 1 51 46
M  V30 55 1 46 55
M  V30 56 1 48 56
M  V30 57 1 50 57
M  V30 58 1 52 58
M  V30 59 1 53 59
M  V30 60 1 54 60
M  V30 61 1 61 62
M  V30 62 1 62 63
M  V30 63 1 63 64
M  V30 64 1 64 65
M  V30 65 1 65 66
M  V30 66 1 65 67
M  V30 67 1 64 68
M  V30 68 1 66 61
M  V30 69 1 61 69
M  V30 70 1 61 70
M  V30 71 1 62 71
M  V30 72 1 62 72
M  V30 73 1 63 73
M  V30 74 1 63 74
M  V30 75 1 64 75
M  V30 76 1 65 76
M  V30 77 1 66 77
M  V30 78 1 66 78
M  V30 79 1 79 80
M  V30 80 1 80 81
M  V30 81 1 81 82
M  V30 82 1 82 83
M  V30 83 1 83 84
M  V30 84 1 83 85
M  V30 85 1 82 86
M  V30 86 1 84 79
M  V30 87 1 79 87
M  V30 88 1 79 88
M  V30 89 1 80 89
M  V30 90 1 80 90
M  V30 91 1 81 91
M  V30 92 1 81 92
M  V30 93 1 82 93
M  V30 94 1 83 94
M  V30 95 1 84 95
M  V30 96 1 84 96
M  V30 97 1 97 98
M  V30 98 1 98 99
M  V30 99 1 99 100
M  V30 100 1 100 101
M  V30 101 1 101 102
M  V30 102 1 101 103
M  V30 103 1 100 104
M  V30 104 1 102 97
M  V30 105 1 97 105
M  V30 106 1 97 106
M  V30 107 1 98 107
M  V30 108 1 98 108
M  V30 109 1 99 109
M  V30 110 1 99 110
M  V30 111 1 100 111
M  V30 112 1 101 112
M  V30 113 1 102 113
M  V30 114 1 102 114
M  V30 115 1 115 116
M  V30 116 1 116 117
M  V30 117 1 117 118
M  V30 118 1 118 119
M  V30 119 1 119 120
M  V30 120 1 119 121
M  V30 121 1 118 122
M  V30 122 1 120 115
M  V30 123 1 115 123
M  V30 124 1 115 124
M  V30 125 1 116 125
M  V30 126 1 116 126
M  V30 127 1 117 127
M  V30 128 1 117 128
M  V30 129 1 118 129
M  V30 130 1 119 130
M  V30 131 1 120 131
M  V30 132 1 120 132
M  V30 133 1 133 134
M  V30 134 1 134 135
M  V30 135 1 135 136
M  V30 136 1 136 137
M  V30 137 1 137 138
M  V30 138 1 137 139
M  V30 139 1 136 140
M  V30 140 1 138 133
M  V30 141 1 133 141
M  V30 142 1 133 142
M  V30 143 1 134 143
M  V30 144 1 134 144
M  V30 145 1 135 145
M  V30 146 1 135 146
M  V30 147 1 136 147
M  V30 148 1 137 148
M  V30 149 1 138 149
M  V30 150 1 138 150
M  V30 151 1 151 152
M  V30 152 1 152 153
M  V30 153 1 153 154
M  V30 154 1 154 155
M  V30 155 1 155 156
M  V30 156 1 155 157
M  V30 157 1 154 158
M  V30 158 1 156 151
M  V30 159 1 151 159
M  V30 160 1 151 160
M  V30 161 1 152 161
M  V30 162 1 152 162
M  V30 163 1 153 163
M  V30 164 1 153 164
M  V30 165 1 154 165
M  V30 166 1 155 166
M  V30 167 1 156 167
M  V30 168 1 156 168
M  V30 169 2 9 68
M  V30 170 2 24 67
M  V30 171 2 7 86
M  V30 172 2 39 85
M  V30 173 2 8 104
M  V30 174 2 54 103
M  V30 175 2 23 122
M  V30 176 2 37 121
M  V30 177 2 22 140
M  V30 178 2 53 139
M  V30 179 2 38 158
M  V30 180 2 52 157
M  V30 END BOND
M  V30 END CTAB
M  END

$$$$
