
     RDKit          3D

  0  0  0  0  0  0  0  0  0  0999 V3000
M  V30 BEGIN CTAB
M  V30 COUNTS 168 180 0 0 0
M  V30 BEGIN ATOM
M  V30 1 C -0.6764 -1.4047 4.6374 0
M  V30 2 C -1.9223 -0.7491 4.5631 0
M  V30 3 C -1.9507 0.6517 4.4128 0
M  V30 4 C -0.7556 1.3945 4.3341 0
M  V30 5 C 0.4780 0.7292 4.4790 0
M  V30 6 C 0.5262 -0.6698 4.6269 0
M  V30 7 C 1.8224 -1.3775 4.7324 0
M  V30 8 C -0.8185 2.8432 4.0313 0
M  V30 9 C -3.1773 -1.5424 4.6113 0
M  V30 10 H -0.6391 -2.4814 4.7185 0
M  V30 11 H -2.9110 1.1377 4.3070 0
M  V30 12 H 1.4024 1.2910 4.4252 0
M  V30 13 H 1.8719 -2.3971 4.3761 0
M  V30 14 H -1.7951 3.3023 3.9728 0
M  V30 15 H -3.0867 -2.6139 4.5121 0
M  V30 16 C -4.6686 -3.1684 0.1023 0
M  V30 17 C -4.1342 -4.1313 0.9820 0
M  V30 18 C -3.1909 -5.0568 0.4948 0
M  V30 19 C -2.7295 -4.9800 -0.8332 0
M  V30 20 C -3.2454 -3.9857 -1.6884 0
M  V30 21 C -4.2397 -3.0944 -1.2374 0
M  V30 22 C -4.7926 -2.0743 -2.1626 0
M  V30 23 C -1.6744 -5.8962 -1.3224 0
M  V30 24 C -4.4935 -4.1370 2.4191 0
M  V30 25 H -5.3876 -2.4461 0.4699 0
M  V30 26 H -2.7624 -5.8080 1.1442 0
M  V30 27 H -2.8783 -3.9098 -2.7017 0
M  V30 28 H -4.3285 -1.9814 -3.1335 0
M  V30 29 H -1.0343 -5.5439 -2.1192 0
M  V30 30 H -4.0271 -4.8700 3.0639 0
M  V30 31 C 3.0643 -3.7711 0.9352 0
M  V30 32 C 3.6656 -2.5078 0.7763 0
M  V30 33 C 3.6946 -1.9168 -0.5003 0
M  V30 34 C 3.1146 -2.5629 -1.6081 0
M  V30 35 C 2.5069 -3.8229 -1.4319 0
M  V30 36 C 2.4830 -4.4360 -0.1631 0
M  V30 37 C 1.8317 -5.7480 0.0537 0
M  V30 38 C 3.0860 -1.9090 -2.9364 0
M  V30 39 C 4.2330 -1.7676 1.9264 0
M  V30 40 H 3.0375 -4.2086 1.9239 0
M  V30 41 H 4.1306 -0.9367 -0.6437 0
M  V30 42 H 2.0365 -4.3301 -2.2631 0
M  V30 43 H 1.6998 -6.0782 1.0757 0
M  V30 44 H 2.3416 -2.2612 -3.6354 0
M  V30 45 H 4.5408 -0.7427 1.7652 0
M  V30 46 C 0.1561 2.7951 -1.2549 0
M  V30 47 C -1.1574 2.9327 -0.7667 0
M  V30 48 C -2.2152 2.3073 -1.4552 0
M  V30 49 C -1.9714 1.5548 -2.6221 0
M  V30 50 C -0.6507 1.4287 -3.0965 0
M  V30 51 C 0.4197 2.0388 -2.4134 0
M  V30 52 C 1.8210 1.8547 -2.8553 0
M  V30 53 C -3.0702 0.8550 -3.3264 0
M  V30 54 C -1.4339 3.6782 0.4845 0
M  V30 55 H 0.9628 3.2511 -0.6955 0
M  V30 56 H -3.2279 2.3702 -1.0786 0
M  V30 57 H -0.4304 0.8330 -3.9715 0
M  V30 58 H 2.6110 2.1739 -2.1883 0
M  V30 59 H -2.8112 0.1585 -4.1126 0
M  V30 60 H -2.4009 3.5501 0.9528 0
M  V30 61 C -8.1102 -2.9967 3.8948 0
M  V30 62 C -8.0935 -1.5352 4.3872 0
M  V30 63 C -6.6941 -0.9047 4.2147 0
M  V30 64 C -5.6119 -1.7404 4.9216 0
M  V30 65 C -5.6036 -3.2112 4.3730 0
M  V30 66 C -7.0015 -3.8366 4.5760 0
M  V30 67 N -5.3162 -3.2436 2.9228 0
M  V30 68 N -4.3430 -0.9663 4.8326 0
M  V30 69 H -7.9591 -3.0128 2.8122 0
M  V30 70 H -9.0870 -3.4439 4.0850 0
M  V30 71 H -8.3807 -1.4995 5.4394 0
M  V30 72 H -8.8290 -0.9509 3.8315 0
M  V30 73 H -6.6897 0.1081 4.6184 0
M  V30 74 H -6.4463 -0.8247 3.1543 0
M  V30 75 H -5.8778 -1.7838 5.9785 0
M  V30 76 H -4.8708 -3.7979 4.9301 0
M  V30 77 H -7.2084 -3.9191 5.6434 0
M  V30 78 H -7.0073 -4.8478 4.1667 0
M  V30 79 C 6.2462 -3.5802 5.1065 0
M  V30 80 C 5.3335 -3.6090 6.3534 0
M  V30 81 C 3.9550 -2.9841 6.0449 0
M  V30 82 C 4.1317 -1.5500 5.4964 0
M  V30 83 C 4.9982 -1.5300 4.2077 0
M  V30 84 C 6.3771 -2.1489 4.5238 0
M  V30 85 N 4.4001 -2.3245 3.1072 0
M  V30 86 N 2.8567 -0.8178 5.3272 0
M  V30 87 H 5.8316 -4.2410 4.3410 0
M  V30 88 H 7.2339 -3.9688 5.3592 0
M  V30 89 H 5.8085 -3.0596 7.1685 0
M  V30 90 H 5.2034 -4.6382 6.6923 0
M  V30 91 H 3.3432 -2.9571 6.9475 0
M  V30 92 H 3.4360 -3.6022 5.3117 0
M  V30 93 H 4.6869 -0.9906 6.2513 0
M  V30 94 H 5.1332 -0.4894 3.9028 0
M  V30 95 H 6.9037 -1.5105 5.2339 0
M  V30 96 H 6.9754 -2.1774 3.6121 0
M  V30 97 C 0.5944 7.2189 1.4698 0
M  V30 98 C 1.6283 6.8954 2.5674 0
M  V30 99 C 1.5862 5.3989 2.9451 0
M  V30 100 C 0.1737 4.9682 3.3786 0
M  V30 101 C -0.8644 5.2592 2.2395 0
M  V30 102 C -0.8256 6.7617 1.8838 0
M  V30 103 N -0.5542 4.5131 0.9969 0
M  V30 104 N 0.2635 3.5469 3.7747 0
M  V30 105 H 0.8791 6.7123 0.5438 0
M  V30 106 H 0.5953 8.2895 1.2595 0
M  V30 107 H 1.4241 7.4994 3.4531 0
M  V30 108 H 2.6293 7.1573 2.2202 0
M  V30 109 H 2.2906 5.1956 3.7523 0
M  V30 110 H 1.8961 4.7896 2.0935 0
M  V30 111 H -0.1005 5.5493 4.2607 0
M  V30 112 H -1.8667 5.0140 2.5943 0
M  V30 113 H -1.1616 7.3446 2.7418 0
M  V30 114 H -1.5236 6.9551 1.0680 0
M  V30 115 C 1.9900 -8.9683 -2.6287 0
M  V30 116 C 0.6294 -9.1254 -3.3431 0
M  V30 117 C -0.3567 -8.0257 -2.8947 0
M  V30 118 C -0.5181 -8.0454 -1.3560 0
M  V30 119 C 0.8413 -7.8442 -0.6319 0
M  V30 120 C 1.8265 -8.9431 -1.0885 0
M  V30 121 N 1.4567 -6.5290 -0.9379 0
M  V30 122 N -1.5564 -7.1189 -0.8444 0
M  V30 123 H 2.4625 -8.0374 -2.9521 0
M  V30 124 H 2.6581 -9.7814 -2.9172 0
M  V30 125 H 0.2080 -10.1075 -3.1197 0
M  V30 126 H 0.7721 -9.0731 -4.4240 0
M  V30 127 H -1.3284 -8.1775 -3.3663 0
M  V30 128 H 0.0226 -7.0561 -3.2184 0
M  V30 129 H -0.8642 -9.0454 -1.0894 0
M  V30 130 H 0.6716 -7.9453 0.4426 0
M  V30 131 H 1.4682 -9.9136 -0.7437 0
M  V30 132 H 2.7972 -8.7744 -0.6197 0
M  V30 133 C -6.8844 2.4527 -3.7125 0
M  V30 134 C -7.8411 1.7815 -2.7062 0
M  V30 135 C -7.1036 0.7189 -1.8638 0
M  V30 136 C -6.4120 -0.3292 -2.7545 0
M  V30 137 C -5.4103 0.3580 -3.7465 0
M  V30 138 C -6.1665 1.4033 -4.5955 0
M  V30 139 N -4.3325 1.0763 -3.0294 0
M  V30 140 N -5.8371 -1.3417 -1.8344 0
M  V30 141 H -6.1366 3.0332 -3.1661 0
M  V30 142 H -7.4351 3.1545 -4.3408 0
M  V30 143 H -8.6672 1.3107 -3.2419 0
M  V30 144 H -8.2712 2.5370 -2.0461 0
M  V30 145 H -7.8065 0.2180 -1.1969 0
M  V30 146 H -6.3529 1.1975 -1.2315 0
M  V30 147 H -7.1870 -0.8238 -3.3423 0
M  V30 148 H -4.9957 -0.3952 -4.4186 0
M  V30 149 H -6.8962 0.8956 -5.2271 0
M  V30 150 H -5.4607 1.9065 -5.2580 0
M  V30 151 C 2.9165 1.2414 -6.9071 0
M  V30 152 C 3.2736 -0.2552 -7.0347 0
M  V30 153 C 3.0966 -0.9837 -5.6841 0
M  V30 154 C 3.9446 -0.2971 -4.5847 0
M  V30 155 C 3.5397 1.1952 -4.4246 0
M  V30 156 C 3.7211 1.9234 -5.7724 0
M  V30 157 N 2.1190 1.3473 -4.0326 0
M  V30 158 N 3.9570 -0.9714 -3.2578 0
M  V30 159 H 1.8486 1.3407 -6.6969 0
M  V30 160 H 3.1027 1.7523 -7.8530 0
M  V30 161 H 4.3070 -0.3573 -7.3716 0
M  V30 162 H 2.6394 -0.7220 -7.7905 0
M  V30 163 H 3.3985 -2.0267 -5.7847 0
M  V30 164 H 2.0429 -0.9630 -5.3995 0
M  V30 165 H 4.9804 -0.3028 -4.9285 0
M  V30 166 H 4.1956 1.6569 -3.6827 0
M  V30 167 H 4.7800 1.9419 -6.0319 0
M  V30 168 H 3.3965 2.9595 -5.6651 0
M  V30 END ATOM
M  V30 BEGIN BOND
M  V30 1 2 1 2
M  V30 2 1 2 3
M  V30 3 2 3 4
M  V30 4 1 4 5
M  V30 5 2 5 6
M  V30 6 1 6 7
M  V30 7 1 4 8
M  V30 8 1 2 9
M  V30 9 1 6 1
M  V30 10 1 1 10
M  V30 11 1 3 11
M  V30 12 1 5 12
M  V30 13 1 7 13
M  V30 14 1 8 14
M  V30 15 1 9 15
M  V30 16 2 16 17
M  V30 17 1 17 18
M  V30 18 2 18 19
M  V30 19 1 19 20
M  V30 20 2 20 21
M  V30 21 1 21 22
M  V30 22 1 19 23
M  V30 23 1 17 24
M  V30 24 1 21 16
M  V30 25 1 16 25
M  V30 26 1 18 26
M  V30 27 1 20 27
M  V30 28 1 22 28
M  V30 29 1 23 29
M  V30 30 1 24 30
M  V30 31 2 31 32
M  V30 32 1 32 33
M  V30 33 2 33 34
M  V30 34 1 34 35
M  V30 35 2 35 36
M  V30 36 1 36 37
M  V30 37 1 34 38
M  V30 38 1 32 39
M  V30 39 1 36 31
M  V30 40 1 31 40
M  V30 41 1 33 41
M  V30 42 1 35 42
M  V30 43 1 37 43
M  V30 44 1 38 44
M  V30 45 1 39 45
M  V30 46 2 46 47
M  V30 47 1 47 48
M  V30 48 2 48 49
M  V30 49 1 49 50
M  V30 50 2 50 51
M  V30 51 1 51 52
M  V30 52 1 49 53
M  V30 53 1 47 54
M  V30 54 1 51 46
M  V30 55 1 46 55
M  V30 56 1 48 56
M  V30 57 1 50 57
M  V30 58 1 52 58
M  V30 59 1 53 59
M  V30 60 1 54 60
M  V30 61 1 61 62
M  V30 62 1 62 63
M  V30 63 1 63 64
M  V30 64 1 64 65
M  V30 65 1 65 66
M  V30 66 1 65 67
M  V30 67 1 64 68
M  V30 68 1 66 61
M  V30 69 1 61 69
M  V30 70 1 61 70
M  V30 71 1 62 71
M  V30 72 1 62 72
M  V30 73 1 63 73
M  V30 74 1 63 74
M  V30 75 1 64 75
M  V30 76 1 65 76
M  V30 77 1 66 77
M  V30 78 1 66 78
M  V30 79 1 79 80
M  V30 80 1 80 81
M  V30 81 1 81 82
M  V30 82 1 82 83
M  V30 83 1 83 84
M  V30 84 1 83 85
M  V30 85 1 82 86
M  V30 86 1 84 79
M  V30 87 1 79 87
M  V30 88 1 79 88
M  V30 89 1 80 89
M  V30 90 1 80 90
M  V30 91 1 81 91
M  V30 92 1 81 92
M  V30 93 1 82 93
M  V30 94 1 83 94
M  V30 95 1 84 95
M  V30 96 1 84 96
M  V30 97 1 97 98
M  V30 98 1 98 99
M  V30 99 1 99 100
M  V30 100 1 100 101
M  V30 101 1 101 102
M  V30 102 1 101 103
M  V30 103 1 100 104
M  V30 104 1 102 97
M  V30 105 1 97 105
M  V30 106 1 97 106
M  V30 107 1 98 107
M  V30 108 1 98 108
M  V30 109 1 99 109
M  V30 110 1 99 110
M  V30 111 1 100 111
M  V30 112 1 101 112
M  V30 113 1 102 113
M  V30 114 1 102 114
M  V30 115 1 115 116
M  V30 116 1 116 117
M  V30 117 1 117 118
M  V30 118 1 118 119
M  V30 119 1 119 120
M  V30 120 1 119 121
M  V30 121 1 118 122
M  V30 122 1 120 115
M  V30 123 1 115 123
M  V30 124 1 115 124
M  V30 125 1 116 125
M  V30 126 1 116 126
M  V30 127 1 117 127
M  V30 128 1 117 128
M  V30 129 1 118 129
M  V30 130 1 119 130
M  V30 131 1 120 131
M  V30 132 1 120 132
M  V30 133 1 133 134
M  V30 134 1 134 135
M  V30 135 1 135 136
M  V30 136 1 136 137
M  V30 137 1 137 138
M  V30 138 1 137 139
M  V30 139 1 136 140
M  V30 140 1 138 133
M  V30 141 1 133 141
M  V30 142 1 133 142
M  V30 143 1 134 143
M  V30 144 1 134 144
M  V30 145 1 135 145
M  V30 146 1 135 146
M  V30 147 1 136 147
M  V30 148 1 137 148
M  V30 149 1 138 149
M  V30 150 1 138 150
M  V30 151 1 151 152
M  V30 152 1 152 153
M  V30 153 1 153 154
M  V30 154 1 154 155
M  V30 155 1 155 156
M  V30 156 1 155 157
M  V30 157 1 154 158
M  V30 158 1 156 151
M  V30 159 1 151 159
M  V30 160 1 151 160
M  V30 161 1 152 161
M  V30 162 1 152 162
M  V30 163 1 153 163
M  V30 164 1 153 164
M  V30 165 1 154 165
M  V30 166 1 155 166
M  V30 167 1 156 167
M  V30 168 1 156 168
M  V30 169 2 9 68
M  V30 170 2 24 67
M  V30 171 2 7 86
M  V30 172 2 39 85
M  V30 173 2 8 104
M  V30 174 2 54 103
M  V30 175 2 23 122
M  V30 176 2 37 121
M  V30 177 2 22 140
M  V30 178 2 53 139
M  V30 179 2 38 158
M  V30 180 2 52 157
M  V30 END BOND
M  V30 END CTAB
M  END

$$$$
