
     RDKit          3D

  0  0  0  0  0  0  0  0  0  0999 V3000
M  V30 BEGIN CTAB
M  V30 COUNTS 168 180 0 0 0
M  V30 BEGIN ATOM
M  V30 1 C -1.5178 -1.4778 3.3064 0
M  V30 2 C -2.7290 -0.6857 3.3926 0
M  V30 3 C -2.7129 0.7059 3.8409 0
M  V30 4 C -1.4265 1.2635 3.8226 0
M  V30 5 C -0.2736 0.4363 3.8748 0
M  V30 6 C -0.2234 -0.8877 3.5995 0
M  V30 7 C 0.9466 -1.6639 3.6994 0
M  V30 8 C -1.2146 2.7348 3.7998 0
M  V30 9 C -4.0106 -1.4342 3.0516 0
M  V30 10 H -1.4720 -2.4691 2.7937 0
M  V30 11 H -3.6266 1.2951 3.8484 0
M  V30 12 H 0.7616 0.8099 3.9153 0
M  V30 13 H 0.8199 -2.5405 3.1309 0
M  V30 14 H -2.0473 3.5369 3.7627 0
M  V30 15 H -3.9779 -2.5212 2.9518 0
M  V30 16 C -5.4470 -4.1242 -0.9989 0
M  V30 17 C -4.9665 -4.8150 0.0726 0
M  V30 18 C -3.8578 -5.6152 -0.0265 0
M  V30 19 C -2.9410 -5.5087 -1.1302 0
M  V30 20 C -3.2921 -4.7317 -2.1843 0
M  V30 21 C -4.4517 -3.8569 -1.9532 0
M  V30 22 C -4.6656 -2.6997 -2.8515 0
M  V30 23 C -1.7517 -6.3614 -1.1018 0
M  V30 24 C -5.5481 -4.4900 1.4371 0
M  V30 25 H -6.3011 -3.6215 -1.0944 0
M  V30 26 H -3.6445 -6.2957 0.8217 0
M  V30 27 H -2.6647 -4.5572 -3.0396 0
M  V30 28 H -4.1276 -2.4180 -3.7511 0
M  V30 29 H -1.6142 -6.9694 -0.3194 0
M  V30 30 H -4.8914 -4.6700 2.2429 0
M  V30 31 C 2.8597 -3.4501 -0.0636 0
M  V30 32 C 3.2448 -2.0989 0.2298 0
M  V30 33 C 3.2036 -1.1319 -0.8005 0
M  V30 34 C 2.6477 -1.4193 -2.0429 0
M  V30 35 C 2.2188 -2.6660 -2.3065 0
M  V30 36 C 2.3995 -3.7071 -1.3092 0
M  V30 37 C 1.8133 -5.0154 -1.6252 0
M  V30 38 C 2.9181 -0.4620 -3.1607 0
M  V30 39 C 3.6209 -1.5718 1.6579 0
M  V30 40 H 2.9410 -4.1936 0.7216 0
M  V30 41 H 3.5318 -0.1438 -0.6494 0
M  V30 42 H 1.8156 -2.7626 -3.3719 0
M  V30 43 H 1.0505 -5.0143 -2.3093 0
M  V30 44 H 2.1800 -0.1769 -3.9118 0
M  V30 45 H 3.5575 -0.4817 1.7823 0
M  V30 46 C 0.2945 3.3174 -1.1315 0
M  V30 47 C -1.0810 3.1944 -0.6453 0
M  V30 48 C -2.0015 2.3999 -1.2514 0
M  V30 49 C -1.7339 1.8942 -2.5815 0
M  V30 50 C -0.4964 2.1752 -3.1201 0
M  V30 51 C 0.5573 2.7398 -2.3719 0
M  V30 52 C 2.0124 2.6711 -2.8736 0
M  V30 53 C -2.7741 1.0874 -3.2661 0
M  V30 54 C -1.2959 3.8326 0.6435 0
M  V30 55 H 0.9913 3.7296 -0.4467 0
M  V30 56 H -2.8969 2.3206 -0.7628 0
M  V30 57 H -0.2186 1.7185 -4.1573 0
M  V30 58 H 2.7274 2.7371 -2.1046 0
M  V30 59 H -2.7208 1.0964 -4.3750 0
M  V30 60 H -1.8454 3.2841 1.4578 0
M  V30 61 C -9.0642 -2.6454 2.4184 0
M  V30 62 C -8.7452 -1.1242 2.0870 0
M  V30 63 C -7.3181 -0.6950 1.7559 0
M  V30 64 C -6.4741 -1.3770 2.8927 0
M  V30 65 C -6.5931 -2.9063 2.8729 0
M  V30 66 C -8.0816 -3.4413 3.3146 0
M  V30 67 N -6.4612 -3.5132 1.6012 0
M  V30 68 N -5.1326 -0.8041 2.9327 0
M  V30 69 H -9.0420 -3.1405 1.4239 0
M  V30 70 H -10.0771 -2.6193 3.0664 0
M  V30 71 H -9.2022 -0.4788 2.7547 0
M  V30 72 H -9.3461 -0.9859 1.1723 0
M  V30 73 H -7.1900 0.4417 1.8602 0
M  V30 74 H -6.8854 -0.8738 0.8668 0
M  V30 75 H -6.9807 -1.0698 3.7320 0
M  V30 76 H -5.8119 -3.3431 3.5329 0
M  V30 77 H -8.2978 -3.0838 4.3552 0
M  V30 78 H -8.0490 -4.5062 3.2324 0
M  V30 79 C 5.4533 -3.8178 5.0016 0
M  V30 80 C 4.2202 -3.9967 5.8965 0
M  V30 81 C 2.8395 -3.6190 5.3046 0
M  V30 82 C 3.0495 -2.1551 4.9962 0
M  V30 83 C 4.2661 -1.8346 3.9224 0
M  V30 84 C 5.6004 -2.4708 4.4395 0
M  V30 85 N 3.9739 -2.3405 2.6742 0
M  V30 86 N 1.8544 -1.4613 4.6993 0
M  V30 87 H 5.2017 -4.3988 4.0853 0
M  V30 88 H 6.5128 -4.0413 5.3966 0
M  V30 89 H 4.2634 -3.4908 6.8852 0
M  V30 90 H 4.0926 -5.0495 6.1125 0
M  V30 91 H 2.1161 -3.8355 5.9962 0
M  V30 92 H 2.6822 -4.1412 4.2541 0
M  V30 93 H 3.4070 -1.6385 5.8462 0
M  V30 94 H 4.4270 -0.7412 3.7626 0
M  V30 95 H 6.2546 -1.8624 5.1169 0
M  V30 96 H 6.2134 -2.3887 3.5640 0
M  V30 97 C 0.8615 7.3355 1.8565 0
M  V30 98 C 1.8290 6.7066 2.8265 0
M  V30 99 C 1.4813 5.2255 3.1360 0
M  V30 100 C 0.0350 4.8804 3.4692 0
M  V30 101 C -0.9008 5.4848 2.2655 0
M  V30 102 C -0.6500 6.9799 2.0115 0
M  V30 103 N -0.5432 4.8831 0.9713 0
M  V30 104 N -0.0563 3.3427 3.6493 0
M  V30 105 H 1.1285 7.1366 0.7913 0
M  V30 106 H 0.8144 8.4323 1.8707 0
M  V30 107 H 1.8101 7.3240 3.7751 0
M  V30 108 H 2.8304 6.7116 2.5028 0
M  V30 109 H 2.0503 4.7675 4.0405 0
M  V30 110 H 1.7670 4.5723 2.2547 0
M  V30 111 H -0.1785 5.3071 4.3834 0
M  V30 112 H -2.0416 5.4005 2.5376 0
M  V30 113 H -1.0954 7.5193 2.7845 0
M  V30 114 H -1.1186 7.2986 1.0530 0
M  V30 115 C 3.0252 -8.5740 -2.1770 0
M  V30 116 C 1.8897 -9.0617 -3.1824 0
M  V30 117 C 0.8108 -7.9711 -3.3335 0
M  V30 118 C 0.3069 -7.5500 -1.9523 0
M  V30 119 C 1.3456 -7.2805 -0.7933 0
M  V30 120 C 2.4060 -8.3522 -0.6948 0
M  V30 121 N 2.1291 -5.9516 -0.7772 0
M  V30 122 N -0.7696 -6.3798 -2.0799 0
M  V30 123 H 3.4161 -7.6572 -2.4576 0
M  V30 124 H 3.8589 -9.3112 -2.0639 0
M  V30 125 H 1.4601 -9.9707 -2.8761 0
M  V30 126 H 2.3372 -9.3432 -4.1404 0
M  V30 127 H 0.0465 -8.3177 -4.0576 0
M  V30 128 H 1.2658 -7.0937 -3.7645 0
M  V30 129 H -0.1890 -8.4896 -1.6023 0
M  V30 130 H 0.7689 -7.1627 0.0660 0
M  V30 131 H 2.1018 -9.2919 -0.3059 0
M  V30 132 H 3.3095 -8.0022 -0.2102 0
M  V30 133 C -6.4248 2.2304 -3.2637 0
M  V30 134 C -7.5214 1.2267 -2.7467 0
M  V30 135 C -6.9556 -0.0060 -2.1680 0
M  V30 136 C -6.0738 -0.6504 -3.2786 0
M  V30 137 C -4.9724 0.1809 -3.8767 0
M  V30 138 C -5.7148 1.5184 -4.3542 0
M  V30 139 N -3.9496 0.7034 -2.8581 0
M  V30 140 N -5.6105 -1.9074 -2.4801 0
M  V30 141 H -5.8666 2.6570 -2.4373 0
M  V30 142 H -6.9184 3.1325 -3.5269 0
M  V30 143 H -8.3330 0.9063 -3.4139 0
M  V30 144 H -8.1224 1.6203 -1.9689 0
M  V30 145 H -7.8492 -0.6172 -1.9973 0
M  V30 146 H -6.1876 0.2012 -1.2367 0
M  V30 147 H -6.7169 -0.9453 -3.9904 0
M  V30 148 H -4.5957 -0.3798 -4.6977 0
M  V30 149 H -6.3322 1.4881 -5.2378 0
M  V30 150 H -4.9792 2.2608 -4.7229 0
M  V30 151 C 4.0452 2.2827 -6.9081 0
M  V30 152 C 4.4971 0.7590 -7.1299 0
M  V30 153 C 3.8576 -0.0526 -5.8975 0
M  V30 154 C 4.4354 0.6668 -4.5958 0
M  V30 155 C 3.9376 2.1561 -4.4064 0
M  V30 156 C 4.4543 2.8955 -5.6047 0
M  V30 157 N 2.3527 2.3048 -4.0697 0
M  V30 158 N 4.1425 -0.0277 -3.3238 0
M  V30 159 H 3.0216 2.4185 -6.9889 0
M  V30 160 H 4.4612 2.9564 -7.7314 0
M  V30 161 H 5.6920 0.8178 -7.2644 0
M  V30 162 H 4.0728 0.2446 -7.9779 0
M  V30 163 H 4.2132 -1.1152 -5.8360 0
M  V30 164 H 2.8673 -0.0151 -5.8396 0
M  V30 165 H 5.4881 0.6202 -4.5194 0
M  V30 166 H 4.6601 2.4232 -3.5622 0
M  V30 167 H 5.5025 3.1158 -5.4466 0
M  V30 168 H 4.1543 3.8628 -5.6213 0
M  V30 END ATOM
M  V30 BEGIN BOND
M  V30 1 2 1 2
M  V30 2 1 2 3
M  V30 3 2 3 4
M  V30 4 1 4 5
M  V30 5 2 5 6
M  V30 6 1 6 7
M  V30 7 1 4 8
M  V30 8 1 2 9
M  V30 9 1 6 1
M  V30 10 1 1 10
M  V30 11 1 3 11
M  V30 12 1 5 12
M  V30 13 1 7 13
M  V30 14 1 8 14
M  V30 15 1 9 15
M  V30 16 2 16 17
M  V30 17 1 17 18
M  V30 18 2 18 19
M  V30 19 1 19 20
M  V30 20 2 20 21
M  V30 21 1 21 22
M  V30 22 1 19 23
M  V30 23 1 17 24
M  V30 24 1 21 16
M  V30 25 1 16 25
M  V30 26 1 18 26
M  V30 27 1 20 27
M  V30 28 1 22 28
M  V30 29 1 23 29
M  V30 30 1 24 30
M  V30 31 2 31 32
M  V30 32 1 32 33
M  V30 33 2 33 34
M  V30 34 1 34 35
M  V30 35 2 35 36
M  V30 36 1 36 37
M  V30 37 1 34 38
M  V30 38 1 32 39
M  V30 39 1 36 31
M  V30 40 1 31 40
M  V30 41 1 33 41
M  V30 42 1 35 42
M  V30 43 1 37 43
M  V30 44 1 38 44
M  V30 45 1 39 45
M  V30 46 2 46 47
M  V30 47 1 47 48
M  V30 48 2 48 49
M  V30 49 1 49 50
M  V30 50 2 50 51
M  V30 51 1 51 52
M  V30 52 1 49 53
M  V30 53 1 47 54
M  V30 54 1 51 46
M  V30 55 1 46 55
M  V30 56 1 48 56
M  V30 57 1 50 57
M  V30 58 1 52 58
M  V30 59 1 53 59
M  V30 60 1 54 60
M  V30 61 1 61 62
M  V30 62 1 62 63
M  V30 63 1 63 64
M  V30 64 1 64 65
M  V30 65 1 65 66
M  V30 66 1 65 67
M  V30 67 1 64 68
M  V30 68 1 66 61
M  V30 69 1 61 69
M  V30 70 1 61 70
M  V30 71 1 62 71
M  V30 72 1 62 72
M  V30 73 1 63 73
M  V30 74 1 63 74
M  V30 75 1 64 75
M  V30 76 1 65 76
M  V30 77 1 66 77
M  V30 78 1 66 78
M  V30 79 1 79 80
M  V30 80 1 80 81
M  V30 81 1 81 82
M  V30 82 1 82 83
M  V30 83 1 83 84
M  V30 84 1 83 85
M  V30 85 1 82 86
M  V30 86 1 84 79
M  V30 87 1 79 87
M  V30 88 1 79 88
M  V30 89 1 80 89
M  V30 90 1 80 90
M  V30 91 1 81 91
M  V30 92 1 81 92
M  V30 93 1 82 93
M  V30 94 1 83 94
M  V30 95 1 84 95
M  V30 96 1 84 96
M  V30 97 1 97 98
M  V30 98 1 98 99
M  V30 99 1 99 100
M  V30 100 1 100 101
M  V30 101 1 101 102
M  V30 102 1 101 103
M  V30 103 1 100 104
M  V30 104 1 102 97
M  V30 105 1 97 105
M  V30 106 1 97 106
M  V30 107 1 98 107
M  V30 108 1 98 108
M  V30 109 1 99 109
M  V30 110 1 99 110
M  V30 111 1 100 111
M  V30 112 1 101 112
M  V30 113 1 102 113
M  V30 114 1 102 114
M  V30 115 1 115 116
M  V30 116 1 116 117
M  V30 117 1 117 118
M  V30 118 1 118 119
M  V30 119 1 119 120
M  V30 120 1 119 121
M  V30 121 1 118 122
M  V30 122 1 120 115
M  V30 123 1 115 123
M  V30 124 1 115 124
M  V30 125 1 116 125
M  V30 126 1 116 126
M  V30 127 1 117 127
M  V30 128 1 117 128
M  V30 129 1 118 129
M  V30 130 1 119 130
M  V30 131 1 120 131
M  V30 132 1 120 132
M  V30 133 1 133 134
M  V30 134 1 134 135
M  V30 135 1 135 136
M  V30 136 1 136 137
M  V30 137 1 137 138
M  V30 138 1 137 139
M  V30 139 1 136 140
M  V30 140 1 138 133
M  V30 141 1 133 141
M  V30 142 1 133 142
M  V30 143 1 134 143
M  V30 144 1 134 144
M  V30 145 1 135 145
M  V30 146 1 135 146
M  V30 147 1 136 147
M  V30 148 1 137 148
M  V30 149 1 138 149
M  V30 150 1 138 150
M  V30 151 1 151 152
M  V30 152 1 152 153
M  V30 153 1 153 154
M  V30 154 1 154 155
M  V30 155 1 155 156
M  V30 156 1 155 157
M  V30 157 1 154 158
M  V30 158 1 156 151
M  V30 159 1 151 159
M  V30 160 1 151 160
M  V30 161 1 152 161
M  V30 162 1 152 162
M  V30 163 1 153 163
M  V30 164 1 153 164
M  V30 165 1 154 165
M  V30 166 1 155 166
M  V30 167 1 156 167
M  V30 168 1 156 168
M  V30 169 2 9 68
M  V30 170 2 24 67
M  V30 171 2 7 86
M  V30 172 2 39 85
M  V30 173 2 8 104
M  V30 174 2 54 103
M  V30 175 2 23 122
M  V30 176 2 37 121
M  V30 177 2 22 140
M  V30 178 2 53 139
M  V30 179 2 38 158
M  V30 180 2 52 157
M  V30 END BOND
M  V30 END CTAB
M  END

$$$$
