
     RDKit          3D

  0  0  0  0  0  0  0  0  0  0999 V3000
M  V30 BEGIN CTAB
M  V30 COUNTS 168 180 0 0 0
M  V30 BEGIN ATOM
M  V30 1 C -0.6300 -1.5351 4.3389 0
M  V30 2 C -1.8852 -0.8898 4.3188 0
M  V30 3 C -1.9318 0.5177 4.3094 0
M  V30 4 C -0.7475 1.2782 4.3073 0
M  V30 5 C 0.4948 0.6188 4.3954 0
M  V30 6 C 0.5645 -0.7874 4.4093 0
M  V30 7 C 1.8778 -1.4784 4.4510 0
M  V30 8 C -0.8315 2.7437 4.1232 0
M  V30 9 C -3.1339 -1.6926 4.2641 0
M  V30 10 H -0.5802 -2.6137 4.3088 0
M  V30 11 H -2.8973 1.0016 4.2458 0
M  V30 12 H 1.4111 1.1961 4.3969 0
M  V30 13 H 1.9501 -2.4614 4.0065 0
M  V30 14 H -1.8138 3.1952 4.0987 0
M  V30 15 H -3.0312 -2.7510 4.0774 0
M  V30 16 C -4.2401 -3.4356 -0.2572 0
M  V30 17 C -3.7775 -4.3802 0.6826 0
M  V30 18 C -2.8190 -5.3340 0.2843 0
M  V30 19 C -2.3134 -5.3379 -1.0312 0
M  V30 20 C -2.7878 -4.3852 -1.9545 0
M  V30 21 C -3.7518 -3.4308 -1.5783 0
M  V30 22 C -4.1967 -2.4185 -2.5678 0
M  V30 23 C -1.2549 -6.3046 -1.4093 0
M  V30 24 C -4.2374 -4.3439 2.0916 0
M  V30 25 H -4.9491 -2.6743 0.0458 0
M  V30 26 H -2.4418 -6.0462 1.0037 0
M  V30 27 H -2.3699 -4.3755 -2.9528 0
M  V30 28 H -3.7454 -2.4510 -3.5490 0
M  V30 29 H -0.9026 -6.9968 -0.6571 0
M  V30 30 H -3.8196 -5.0560 2.7906 0
M  V30 31 C 3.5436 -3.2884 0.2789 0
M  V30 32 C 4.1540 -2.0195 0.3231 0
M  V30 33 C 4.3157 -1.2914 -0.8707 0
M  V30 34 C 3.8477 -1.8005 -2.0957 0
M  V30 35 C 3.2326 -3.0681 -2.1240 0
M  V30 36 C 3.0858 -3.8238 -0.9429 0
M  V30 37 C 2.4313 -5.1536 -0.9582 0
M  V30 38 C 3.9207 -0.9830 -3.3284 0
M  V30 39 C 4.5953 -1.4110 1.5985 0
M  V30 40 H 3.4152 -3.8302 1.2060 0
M  V30 41 H 4.7605 -0.3051 -0.8607 0
M  V30 42 H 2.8424 -3.4735 -3.0482 0
M  V30 43 H 2.1763 -5.6053 -0.0087 0
M  V30 44 H 3.1933 -1.1973 -4.0977 0
M  V30 45 H 4.9546 -0.3905 1.5731 0
M  V30 46 C 0.6674 3.0807 -1.1778 0
M  V30 47 C -0.6624 2.9873 -0.7241 0
M  V30 48 C -1.6000 2.2646 -1.4901 0
M  V30 49 C -1.2209 1.6498 -2.7015 0
M  V30 50 C 0.1141 1.7570 -3.1397 0
M  V30 51 C 1.0655 2.4637 -2.3794 0
M  V30 52 C 2.4881 2.5153 -2.7830 0
M  V30 53 C -2.1886 0.8651 -3.5041 0
M  V30 54 C -1.0745 3.6070 0.5599 0
M  V30 55 H 1.3828 3.6096 -0.5620 0
M  V30 56 H -2.6206 2.1488 -1.1479 0
M  V30 57 H 0.4407 1.2683 -4.0473 0
M  V30 58 H 3.2114 2.8356 -2.0447 0
M  V30 59 H -1.8103 0.2825 -4.3334 0
M  V30 60 H -2.0122 3.2969 1.0023 0
M  V30 61 C -7.9744 -3.1950 3.2223 0
M  V30 62 C -7.9983 -1.7181 3.6683 0
M  V30 63 C -6.5865 -1.0927 3.6123 0
M  V30 64 C -5.5827 -1.9117 4.4432 0
M  V30 65 C -5.5188 -3.3915 3.9269 0
M  V30 66 C -6.9296 -4.0151 4.0217 0
M  V30 67 N -5.1100 -3.4524 2.5052 0
M  V30 68 N -4.3111 -1.1382 4.4816 0
M  V30 69 H -7.7315 -3.2435 2.1576 0
M  V30 70 H -8.9652 -3.6362 3.3411 0
M  V30 71 H -8.3854 -1.6498 4.6865 0
M  V30 72 H -8.6749 -1.1506 3.0267 0
M  V30 73 H -6.6172 -0.0691 3.9869 0
M  V30 74 H -6.2377 -1.0421 2.5787 0
M  V30 75 H -5.9595 -1.9371 5.4668 0
M  V30 76 H -4.8336 -3.9613 4.5576 0
M  V30 77 H -7.2307 -4.0699 5.0683 0
M  V30 78 H -6.8994 -5.0366 3.6403 0
M  V30 79 C 6.4577 -3.4767 4.6187 0
M  V30 80 C 5.4953 -3.7430 5.8001 0
M  V30 81 C 4.0919 -3.1536 5.5257 0
M  V30 82 C 4.2028 -1.6488 5.1942 0
M  V30 83 C 5.1073 -1.4017 3.9573 0
M  V30 84 C 6.5139 -1.9716 4.2472 0
M  V30 85 N 4.6055 -2.0741 2.7351 0
M  V30 86 N 2.9011 -0.9471 5.0904 0
M  V30 87 H 6.1239 -4.0460 3.7478 0
M  V30 88 H 7.4588 -3.8347 4.8650 0
M  V30 89 H 5.9038 -3.2999 6.7103 0
M  V30 90 H 5.4143 -4.8175 5.9743 0
M  V30 91 H 3.4514 -3.2881 6.3982 0
M  V30 92 H 3.6340 -3.6853 4.6911 0
M  V30 93 H 4.7086 -1.1806 6.0401 0
M  V30 94 H 5.1788 -0.3228 3.7994 0
M  V30 95 H 6.9702 -1.4086 5.0619 0
M  V30 96 H 7.1460 -1.8350 3.3683 0
M  V30 97 C 0.5779 7.2931 1.8655 0
M  V30 98 C 1.5168 6.9620 3.0438 0
M  V30 99 C 1.5312 5.4447 3.3272 0
M  V30 100 C 0.1121 4.9131 3.5891 0
M  V30 101 C -0.8273 5.2117 2.3698 0
M  V30 102 C -0.8463 6.7319 2.1012 0
M  V30 103 N -0.3632 4.5660 1.1178 0
M  V30 104 N 0.2367 3.4769 3.9006 0
M  V30 105 H 0.9856 6.8598 0.9485 0
M  V30 106 H 0.5331 8.3726 1.7143 0
M  V30 107 H 1.1892 7.4967 3.9373 0
M  V30 108 H 2.5288 7.3010 2.8155 0
M  V30 109 H 2.1637 5.2290 4.1890 0
M  V30 110 H 1.9584 4.9096 2.4767 0
M  V30 111 H -0.2818 5.4224 4.4703 0
M  V30 112 H -1.8430 4.8916 2.6090 0
M  V30 113 H -1.3073 7.2431 2.9466 0
M  V30 114 H -1.4660 6.9317 1.2256 0
M  V30 115 C 3.0450 -7.9458 -4.0046 0
M  V30 116 C 1.7991 -8.0051 -4.9126 0
M  V30 117 C 0.7173 -7.0143 -4.4325 0
M  V30 118 C 0.3414 -7.2707 -2.9639 0
M  V30 119 C 1.5997 -7.1600 -2.0388 0
M  V30 120 C 2.6761 -8.1596 -2.5158 0
M  V30 121 N 2.2129 -5.8114 -2.0776 0
M  V30 122 N -0.7389 -6.3252 -2.6186 0
M  V30 123 H 3.5264 -6.9709 -4.1174 0
M  V30 124 H 3.7714 -8.6969 -4.3189 0
M  V30 125 H 1.3915 -9.0176 -4.9122 0
M  V30 126 H 2.0807 -7.7703 -5.9407 0
M  V30 127 H -0.1740 -7.1017 -5.0548 0
M  V30 128 H 1.0781 -5.9888 -4.5329 0
M  V30 129 H -0.0563 -8.2846 -2.8920 0
M  V30 130 H 1.3132 -7.4178 -1.0179 0
M  V30 131 H 2.3138 -9.1776 -2.3706 0
M  V30 132 H 3.5697 -8.0446 -1.9002 0
M  V30 133 C -5.9033 2.2053 -4.4134 0
M  V30 134 C -7.0013 1.5496 -3.5504 0
M  V30 135 C -6.3979 0.5249 -2.5642 0
M  V30 136 C -5.5655 -0.5374 -3.3028 0
M  V30 137 C -4.4167 0.1397 -4.1283 0
M  V30 138 C -5.0342 1.1422 -5.1292 0
M  V30 139 N -3.4826 0.9028 -3.2690 0
M  V30 140 N -5.1252 -1.5269 -2.2908 0
M  V30 141 H -5.2634 2.8201 -3.7750 0
M  V30 142 H -6.3548 2.8737 -5.1482 0
M  V30 143 H -7.7256 1.0498 -4.1960 0
M  V30 144 H -7.5401 2.3186 -2.9940 0
M  V30 145 H -7.1926 0.0345 -2.0012 0
M  V30 146 H -5.7603 1.0333 -1.8381 0
M  V30 147 H -6.2303 -1.0516 -3.9990 0
M  V30 148 H -3.8796 -0.6266 -4.6890 0
M  V30 149 H -5.6408 0.6010 -5.8559 0
M  V30 150 H -4.2348 1.6380 -5.6820 0
M  V30 151 C 3.8736 2.6406 -6.8095 0
M  V30 152 C 4.4022 1.2277 -7.1397 0
M  V30 153 C 4.1965 0.2716 -5.9442 0
M  V30 154 C 4.8821 0.8357 -4.6745 0
M  V30 155 C 4.3317 2.2454 -4.3206 0
M  V30 156 C 4.5204 3.1991 -5.5189 0
M  V30 157 N 2.8865 2.2004 -3.9976 0
M  V30 158 N 4.8358 -0.0425 -3.4737 0
M  V30 159 H 2.7894 2.6002 -6.6766 0
M  V30 160 H 4.0671 3.3170 -7.6437 0
M  V30 161 H 5.4641 1.2811 -7.3878 0
M  V30 162 H 3.8833 0.8364 -8.0168 0
M  V30 163 H 4.6071 -0.7116 -6.1769 0
M  V30 164 H 3.1263 0.1562 -5.7653 0
M  V30 165 H 5.9399 0.9639 -4.9103 0
M  V30 166 H 4.9007 2.6333 -3.4724 0
M  V30 167 H 5.5860 3.3609 -5.6840 0
M  V30 168 H 4.0804 4.1680 -5.2775 0
M  V30 END ATOM
M  V30 BEGIN BOND
M  V30 1 2 1 2
M  V30 2 1 2 3
M  V30 3 2 3 4
M  V30 4 1 4 5
M  V30 5 2 5 6
M  V30 6 1 6 7
M  V30 7 1 4 8
M  V30 8 1 2 9
M  V30 9 1 6 1
M  V30 10 1 1 10
M  V30 11 1 3 11
M  V30 12 1 5 12
M  V30 13 1 7 13
M  V30 14 1 8 14
M  V30 15 1 9 15
M  V30 16 2 16 17
M  V30 17 1 17 18
M  V30 18 2 18 19
M  V30 19 1 19 20
M  V30 20 2 20 21
M  V30 21 1 21 22
M  V30 22 1 19 23
M  V30 23 1 17 24
M  V30 24 1 21 16
M  V30 25 1 16 25
M  V30 26 1 18 26
M  V30 27 1 20 27
M  V30 28 1 22 28
M  V30 29 1 23 29
M  V30 30 1 24 30
M  V30 31 2 31 32
M  V30 32 1 32 33
M  V30 33 2 33 34
M  V30 34 1 34 35
M  V30 35 2 35 36
M  V30 36 1 36 37
M  V30 37 1 34 38
M  V30 38 1 32 39
M  V30 39 1 36 31
M  V30 40 1 31 40
M  V30 41 1 33 41
M  V30 42 1 35 42
M  V30 43 1 37 43
M  V30 44 1 38 44
M  V30 45 1 39 45
M  V30 46 2 46 47
M  V30 47 1 47 48
M  V30 48 2 48 49
M  V30 49 1 49 50
M  V30 50 2 50 51
M  V30 51 1 51 52
M  V30 52 1 49 53
M  V30 53 1 47 54
M  V30 54 1 51 46
M  V30 55 1 46 55
M  V30 56 1 48 56
M  V30 57 1 50 57
M  V30 58 1 52 58
M  V30 59 1 53 59
M  V30 60 1 54 60
M  V30 61 1 61 62
M  V30 62 1 62 63
M  V30 63 1 63 64
M  V30 64 1 64 65
M  V30 65 1 65 66
M  V30 66 1 65 67
M  V30 67 1 64 68
M  V30 68 1 66 61
M  V30 69 1 61 69
M  V30 70 1 61 70
M  V30 71 1 62 71
M  V30 72 1 62 72
M  V30 73 1 63 73
M  V30 74 1 63 74
M  V30 75 1 64 75
M  V30 76 1 65 76
M  V30 77 1 66 77
M  V30 78 1 66 78
M  V30 79 1 79 80
M  V30 80 1 80 81
M  V30 81 1 81 82
M  V30 82 1 82 83
M  V30 83 1 83 84
M  V30 84 1 83 85
M  V30 85 1 82 86
M  V30 86 1 84 79
M  V30 87 1 79 87
M  V30 88 1 79 88
M  V30 89 1 80 89
M  V30 90 1 80 90
M  V30 91 1 81 91
M  V30 92 1 81 92
M  V30 93 1 82 93
M  V30 94 1 83 94
M  V30 95 1 84 95
M  V30 96 1 84 96
M  V30 97 1 97 98
M  V30 98 1 98 99
M  V30 99 1 99 100
M  V30 100 1 100 101
M  V30 101 1 101 102
M  V30 102 1 101 103
M  V30 103 1 100 104
M  V30 104 1 102 97
M  V30 105 1 97 105
M  V30 106 1 97 106
M  V30 107 1 98 107
M  V30 108 1 98 108
M  V30 109 1 99 109
M  V30 110 1 99 110
M  V30 111 1 100 111
M  V30 112 1 101 112
M  V30 113 1 102 113
M  V30 114 1 102 114
M  V30 115 1 115 116
M  V30 116 1 116 117
M  V30 117 1 117 118
M  V30 118 1 118 119
M  V30 119 1 119 120
M  V30 120 1 119 121
M  V30 121 1 118 122
M  V30 122 1 120 115
M  V30 123 1 115 123
M  V30 124 1 115 124
M  V30 125 1 116 125
M  V30 126 1 116 126
M  V30 127 1 117 127
M  V30 128 1 117 128
M  V30 129 1 118 129
M  V30 130 1 119 130
M  V30 131 1 120 131
M  V30 132 1 120 132
M  V30 133 1 133 134
M  V30 134 1 134 135
M  V30 135 1 135 136
M  V30 136 1 136 137
M  V30 137 1 137 138
M  V30 138 1 137 139
M  V30 139 1 136 140
M  V30 140 1 138 133
M  V30 141 1 133 141
M  V30 142 1 133 142
M  V30 143 1 134 143
M  V30 144 1 134 144
M  V30 145 1 135 145
M  V30 146 1 135 146
M  V30 147 1 136 147
M  V30 148 1 137 148
M  V30 149 1 138 149
M  V30 150 1 138 150
M  V30 151 1 151 152
M  V30 152 1 152 153
M  V30 153 1 153 154
M  V30 154 1 154 155
M  V30 155 1 155 156
M  V30 156 1 155 157
M  V30 157 1 154 158
M  V30 158 1 156 151
M  V30 159 1 151 159
M  V30 160 1 151 160
M  V30 161 1 152 161
M  V30 162 1 152 162
M  V30 163 1 153 163
M  V30 164 1 153 164
M  V30 165 1 154 165
M  V30 166 1 155 166
M  V30 167 1 156 167
M  V30 168 1 156 168
M  V30 169 2 9 68
M  V30 170 2 24 67
M  V30 171 2 7 86
M  V30 172 2 39 85
M  V30 173 2 8 104
M  V30 174 2 54 103
M  V30 175 2 23 122
M  V30 176 2 37 121
M  V30 177 2 22 140
M  V30 178 2 53 139
M  V30 179 2 38 158
M  V30 180 2 52 157
M  V30 END BOND
M  V30 END CTAB
M  END

$$$$
