
     RDKit          3D

  0  0  0  0  0  0  0  0  0  0999 V3000
M  V30 BEGIN CTAB
M  V30 COUNTS 168 180 0 0 0
M  V30 BEGIN ATOM
M  V30 1 C -1.4962 0.8801 4.5781 0
M  V30 2 C -1.4147 -0.5518 4.6681 0
M  V30 3 C -0.1181 -1.1176 4.7747 0
M  V30 4 C 1.0544 -0.3565 4.9640 0
M  V30 5 C 0.9515 1.0650 4.8985 0
M  V30 6 C -0.3343 1.7164 4.7742 0
M  V30 7 C -0.5285 3.1347 4.8949 0
M  V30 8 C 2.3335 -0.9380 5.2041 0
M  V30 9 C -2.6317 -1.4186 4.7221 0
M  V30 10 H -2.4678 1.3534 4.5438 0
M  V30 11 H -0.0957 -2.2049 4.9025 0
M  V30 12 H 1.8017 1.6296 5.1061 0
M  V30 13 H -1.2530 3.6615 5.5480 0
M  V30 14 H 3.0948 -0.6804 5.9184 0
M  V30 15 H -2.8062 -2.3437 5.2307 0
M  V30 16 C -2.6104 -3.9519 -0.6424 0
M  V30 17 C -3.5049 -3.0716 0.0753 0
M  V30 18 C -3.9598 -1.9387 -0.6698 0
M  V30 19 C -3.7227 -1.8064 -2.0755 0
M  V30 20 C -2.8928 -2.7105 -2.7383 0
M  V30 21 C -2.3086 -3.8184 -1.9965 0
M  V30 22 C -1.5089 -4.8277 -2.6554 0
M  V30 23 C -4.4113 -0.7209 -2.7763 0
M  V30 24 C -3.9535 -3.4298 1.4219 0
M  V30 25 H -2.3160 -4.8748 -0.1485 0
M  V30 26 H -4.5626 -1.1617 -0.1902 0
M  V30 27 H -2.6457 -2.5111 -3.7981 0
M  V30 28 H -1.6840 -5.8925 -2.5502 0
M  V30 29 H -4.9235 -0.8716 -3.7745 0
M  V30 30 H -4.3593 -4.4166 1.6781 0
M  V30 31 C 4.3599 -0.7781 -0.8601 0
M  V30 32 C 4.2121 -1.8174 0.1250 0
M  V30 33 C 3.3701 -2.9661 -0.3250 0
M  V30 34 C 3.0169 -3.1385 -1.6715 0
M  V30 35 C 3.3261 -2.0914 -2.6093 0
M  V30 36 C 3.9892 -0.8953 -2.2431 0
M  V30 37 C 4.2236 0.0772 -3.2976 0
M  V30 38 C 2.4781 -4.4690 -2.1093 0
M  V30 39 C 4.9153 -1.6656 1.3873 0
M  V30 40 H 4.9524 0.0920 -0.6568 0
M  V30 41 H 3.1237 -3.7468 0.3782 0
M  V30 42 H 3.1287 -2.2397 -3.6754 0
M  V30 43 H 4.3990 -0.1293 -4.3643 0
M  V30 44 H 2.9800 -5.4273 -1.9190 0
M  V30 45 H 5.9194 -1.2330 1.5665 0
M  V30 46 C -1.4023 3.8659 -0.8343 0
M  V30 47 C -0.4776 4.4407 0.0324 0
M  V30 48 C 0.8878 4.3640 -0.3866 0
M  V30 49 C 1.2962 3.8854 -1.6206 0
M  V30 50 C 0.3229 3.3663 -2.4570 0
M  V30 51 C -1.0328 3.3424 -2.1151 0
M  V30 52 C -1.9960 2.8913 -3.1291 0
M  V30 53 C 2.6646 4.0354 -2.0221 0
M  V30 54 C -0.9000 5.0874 1.2589 0
M  V30 55 H -2.4023 3.8222 -0.5140 0
M  V30 56 H 1.5844 4.8556 0.3325 0
M  V30 57 H 0.6148 3.0336 -3.4455 0
M  V30 58 H -1.8928 2.9718 -4.1994 0
M  V30 59 H 3.2896 4.9061 -1.8430 0
M  V30 60 H -1.7634 5.7406 1.3194 0
M  V30 61 C -7.4654 -2.7372 3.1567 0
M  V30 62 C -7.5589 -1.5942 4.1625 0
M  V30 63 C -6.2250 -0.8060 4.1355 0
M  V30 64 C -5.0203 -1.7141 4.5056 0
M  V30 65 C -4.9359 -3.0200 3.6158 0
M  V30 66 C -6.3522 -3.7227 3.5553 0
M  V30 67 N -4.4245 -2.5234 2.2446 0
M  V30 68 N -3.7767 -0.8440 4.3667 0
M  V30 69 H -7.2499 -2.2928 2.1825 0
M  V30 70 H -8.4966 -3.2272 3.0139 0
M  V30 71 H -7.6388 -2.0060 5.1751 0
M  V30 72 H -8.3761 -0.8750 4.0019 0
M  V30 73 H -6.2265 0.0549 4.8749 0
M  V30 74 H -6.0394 -0.3720 3.1333 0
M  V30 75 H -5.1799 -2.0494 5.5332 0
M  V30 76 H -4.2616 -3.7216 4.0390 0
M  V30 77 H -6.5426 -4.2492 4.4378 0
M  V30 78 H -6.3220 -4.4910 2.7674 0
M  V30 79 C 6.0964 -4.5102 3.7711 0
M  V30 80 C 5.0162 -5.0862 4.7465 0
M  V30 81 C 3.7221 -4.2966 4.7231 0
M  V30 82 C 3.8926 -2.7219 4.8475 0
M  V30 83 C 4.9615 -2.1695 3.8095 0
M  V30 84 C 6.3019 -2.9700 3.9712 0
M  V30 85 N 4.4162 -2.3844 2.4341 0
M  V30 86 N 2.5421 -2.1377 4.6360 0
M  V30 87 H 5.8144 -4.7764 2.6902 0
M  V30 88 H 7.0866 -5.0512 3.9769 0
M  V30 89 H 5.3668 -5.1244 5.7696 0
M  V30 90 H 4.7530 -6.1139 4.5413 0
M  V30 91 H 3.0510 -4.6958 5.4816 0
M  V30 92 H 3.2292 -4.5329 3.7739 0
M  V30 93 H 4.3552 -2.5624 5.8666 0
M  V30 94 H 5.1457 -1.1520 4.0489 0
M  V30 95 H 6.7924 -2.7497 4.9024 0
M  V30 96 H 6.9454 -2.6142 3.2046 0
M  V30 97 C 0.9331 8.0642 3.5304 0
M  V30 98 C 1.7704 7.5012 4.6579 0
M  V30 99 C 1.8322 5.9209 4.5845 0
M  V30 100 C 0.4417 5.3688 4.6908 0
M  V30 101 C -0.5024 5.9476 3.5183 0
M  V30 102 C -0.4857 7.4758 3.5428 0
M  V30 103 N -0.0323 5.3284 2.2669 0
M  V30 104 N 0.5490 3.8737 4.6151 0
M  V30 105 H 1.4323 7.8210 2.5734 0
M  V30 106 H 0.9084 9.1396 3.5680 0
M  V30 107 H 1.2262 7.8013 5.5523 0
M  V30 108 H 2.7615 7.9424 4.6544 0
M  V30 109 H 2.4500 5.4420 5.3936 0
M  V30 110 H 2.2302 5.5783 3.6236 0
M  V30 111 H -0.0681 5.7659 5.6203 0
M  V30 112 H -1.4420 5.5196 3.7920 0
M  V30 113 H -1.0603 7.8851 4.4127 0
M  V30 114 H -0.9580 7.8141 2.6580 0
M  V30 115 C 2.4813 -6.1884 -5.7496 0
M  V30 116 C 1.2012 -5.8934 -6.5808 0
M  V30 117 C 0.2901 -4.9386 -5.7896 0
M  V30 118 C -0.1200 -5.5309 -4.4161 0
M  V30 119 C 1.1462 -5.9046 -3.5681 0
M  V30 120 C 2.1841 -6.7690 -4.3167 0
M  V30 121 N 1.7188 -4.5215 -3.1894 0
M  V30 122 N -0.8603 -4.4857 -3.7104 0
M  V30 123 H 2.9367 -5.2201 -5.6405 0
M  V30 124 H 3.1107 -6.8508 -6.3334 0
M  V30 125 H 0.6582 -6.8526 -6.7568 0
M  V30 126 H 1.5125 -5.4149 -7.5043 0
M  V30 127 H -0.6137 -4.8431 -6.3434 0
M  V30 128 H 0.7532 -3.9707 -5.7038 0
M  V30 129 H -0.5795 -6.4864 -4.4961 0
M  V30 130 H 0.7909 -6.4566 -2.6992 0
M  V30 131 H 1.8343 -7.8205 -4.4510 0
M  V30 132 H 3.1401 -6.8227 -3.7857 0
M  V30 133 C -5.8567 4.2238 -3.7763 0
M  V30 134 C -6.9173 3.5352 -2.8684 0
M  V30 135 C -6.1733 2.4975 -1.9697 0
M  V30 136 C -5.3314 1.4474 -2.8271 0
M  V30 137 C -4.2561 2.1431 -3.6823 0
M  V30 138 C -5.0116 3.2098 -4.5665 0
M  V30 139 N -3.2496 2.7020 -2.7215 0
M  V30 140 N -4.7265 0.3742 -2.1054 0
M  V30 141 H -5.2382 4.8028 -3.1354 0
M  V30 142 H -6.3853 4.8573 -4.4581 0
M  V30 143 H -7.6941 3.0655 -3.4530 0
M  V30 144 H -7.2731 4.4022 -2.2071 0
M  V30 145 H -6.9144 1.9675 -1.3449 0
M  V30 146 H -5.5499 3.0280 -1.2405 0
M  V30 147 H -6.0456 1.0718 -3.5773 0
M  V30 148 H -3.8051 1.3786 -4.2821 0
M  V30 149 H -5.5868 2.6790 -5.3187 0
M  V30 150 H -4.2827 3.7095 -5.2391 0
M  V30 151 C 4.4578 4.5234 -5.7447 0
M  V30 152 C 5.0220 3.1800 -6.4067 0
M  V30 153 C 4.6874 2.0134 -5.4759 0
M  V30 154 C 5.1704 2.2338 -3.9840 0
M  V30 155 C 4.6347 3.5637 -3.3887 0
M  V30 156 C 4.8743 4.7616 -4.3278 0
M  V30 157 N 3.1598 3.3120 -3.0216 0
M  V30 158 N 4.8559 1.2174 -2.9369 0
M  V30 159 H 3.3707 4.4452 -5.7259 0
M  V30 160 H 4.6682 5.3840 -6.3973 0
M  V30 161 H 6.0812 3.2236 -6.5026 0
M  V30 162 H 4.5040 2.9738 -7.3407 0
M  V30 163 H 5.2737 1.1891 -5.8798 0
M  V30 164 H 3.6605 1.7066 -5.5443 0
M  V30 165 H 6.2179 2.4188 -4.0447 0
M  V30 166 H 5.1829 3.7076 -2.4517 0
M  V30 167 H 5.9624 4.9711 -4.3810 0
M  V30 168 H 4.3958 5.6801 -3.9225 0
M  V30 END ATOM
M  V30 BEGIN BOND
M  V30 1 2 1 2
M  V30 2 1 2 3
M  V30 3 2 3 4
M  V30 4 1 4 5
M  V30 5 2 5 6
M  V30 6 1 6 7
M  V30 7 1 4 8
M  V30 8 1 2 9
M  V30 9 1 6 1
M  V30 10 1 1 10
M  V30 11 1 3 11
M  V30 12 1 5 12
M  V30 13 1 7 13
M  V30 14 1 8 14
M  V30 15 1 9 15
M  V30 16 2 16 17
M  V30 17 1 17 18
M  V30 18 2 18 19
M  V30 19 1 19 20
M  V30 20 2 20 21
M  V30 21 1 21 22
M  V30 22 1 19 23
M  V30 23 1 17 24
M  V30 24 1 21 16
M  V30 25 1 16 25
M  V30 26 1 18 26
M  V30 27 1 20 27
M  V30 28 1 22 28
M  V30 29 1 23 29
M  V30 30 1 24 30
M  V30 31 2 31 32
M  V30 32 1 32 33
M  V30 33 2 33 34
M  V30 34 1 34 35
M  V30 35 2 35 36
M  V30 36 1 36 37
M  V30 37 1 34 38
M  V30 38 1 32 39
M  V30 39 1 36 31
M  V30 40 1 31 40
M  V30 41 1 33 41
M  V30 42 1 35 42
M  V30 43 1 37 43
M  V30 44 1 38 44
M  V30 45 1 39 45
M  V30 46 2 46 47
M  V30 47 1 47 48
M  V30 48 2 48 49
M  V30 49 1 49 50
M  V30 50 2 50 51
M  V30 51 1 51 52
M  V30 52 1 49 53
M  V30 53 1 47 54
M  V30 54 1 51 46
M  V30 55 1 46 55
M  V30 56 1 48 56
M  V30 57 1 50 57
M  V30 58 1 52 58
M  V30 59 1 53 59
M  V30 60 1 54 60
M  V30 61 1 61 62
M  V30 62 1 62 63
M  V30 63 1 63 64
M  V30 64 1 64 65
M  V30 65 1 65 66
M  V30 66 1 65 67
M  V30 67 1 64 68
M  V30 68 1 66 61
M  V30 69 1 61 69
M  V30 70 1 61 70
M  V30 71 1 62 71
M  V30 72 1 62 72
M  V30 73 1 63 73
M  V30 74 1 63 74
M  V30 75 1 64 75
M  V30 76 1 65 76
M  V30 77 1 66 77
M  V30 78 1 66 78
M  V30 79 1 79 80
M  V30 80 1 80 81
M  V30 81 1 81 82
M  V30 82 1 82 83
M  V30 83 1 83 84
M  V30 84 1 83 85
M  V30 85 1 82 86
M  V30 86 1 84 79
M  V30 87 1 79 87
M  V30 88 1 79 88
M  V30 89 1 80 89
M  V30 90 1 80 90
M  V30 91 1 81 91
M  V30 92 1 81 92
M  V30 93 1 82 93
M  V30 94 1 83 94
M  V30 95 1 84 95
M  V30 96 1 84 96
M  V30 97 1 97 98
M  V30 98 1 98 99
M  V30 99 1 99 100
M  V30 100 1 100 101
M  V30 101 1 101 102
M  V30 102 1 101 103
M  V30 103 1 100 104
M  V30 104 1 102 97
M  V30 105 1 97 105
M  V30 106 1 97 106
M  V30 107 1 98 107
M  V30 108 1 98 108
M  V30 109 1 99 109
M  V30 110 1 99 110
M  V30 111 1 100 111
M  V30 112 1 101 112
M  V30 113 1 102 113
M  V30 114 1 102 114
M  V30 115 1 115 116
M  V30 116 1 116 117
M  V30 117 1 117 118
M  V30 118 1 118 119
M  V30 119 1 119 120
M  V30 120 1 119 121
M  V30 121 1 118 122
M  V30 122 1 120 115
M  V30 123 1 115 123
M  V30 124 1 115 124
M  V30 125 1 116 125
M  V30 126 1 116 126
M  V30 127 1 117 127
M  V30 128 1 117 128
M  V30 129 1 118 129
M  V30 130 1 119 130
M  V30 131 1 120 131
M  V30 132 1 120 132
M  V30 133 1 133 134
M  V30 134 1 134 135
M  V30 135 1 135 136
M  V30 136 1 136 137
M  V30 137 1 137 138
M  V30 138 1 137 139
M  V30 139 1 136 140
M  V30 140 1 138 133
M  V30 141 1 133 141
M  V30 142 1 133 142
M  V30 143 1 134 143
M  V30 144 1 134 144
M  V30 145 1 135 145
M  V30 146 1 135 146
M  V30 147 1 136 147
M  V30 148 1 137 148
M  V30 149 1 138 149
M  V30 150 1 138 150
M  V30 151 1 151 152
M  V30 152 1 152 153
M  V30 153 1 153 154
M  V30 154 1 154 155
M  V30 155 1 155 156
M  V30 156 1 155 157
M  V30 157 1 154 158
M  V30 158 1 156 151
M  V30 159 1 151 159
M  V30 160 1 151 160
M  V30 161 1 152 161
M  V30 162 1 152 162
M  V30 163 1 153 163
M  V30 164 1 153 164
M  V30 165 1 154 165
M  V30 166 1 155 166
M  V30 167 1 156 167
M  V30 168 1 156 168
M  V30 169 2 9 68
M  V30 170 2 24 67
M  V30 171 2 8 86
M  V30 172 2 39 85
M  V30 173 2 7 104
M  V30 174 2 54 103
M  V30 175 2 22 122
M  V30 176 2 38 121
M  V30 177 2 23 140
M  V30 178 2 52 139
M  V30 179 2 37 158
M  V30 180 2 53 157
M  V30 END BOND
M  V30 END CTAB
M  END

$$$$
