
     RDKit          3D

  0  0  0  0  0  0  0  0  0  0999 V3000
M  V30 BEGIN CTAB
M  V30 COUNTS 168 180 0 0 0
M  V30 BEGIN ATOM
M  V30 1 C 0.0084 -1.4054 11.4777 0
M  V30 2 C -1.1863 -0.7188 11.4777 0
M  V30 3 C -1.2209 0.6596 11.4777 0
M  V30 4 C -0.0313 1.3877 11.4777 0
M  V30 5 C 1.1454 0.6595 11.4777 0
M  V30 6 C 1.2075 -0.7156 11.4777 0
M  V30 7 C 2.4944 -1.4168 11.4777 0
M  V30 8 C -0.0358 2.8362 11.4777 0
M  V30 9 C -2.4586 -1.4195 11.4777 0
M  V30 10 H 0.0520 -2.4852 11.4777 0
M  V30 11 H -2.1368 1.2231 11.4777 0
M  V30 12 H 2.0738 1.2555 11.4778 0
M  V30 13 H 2.5755 -2.4831 11.4778 0
M  V30 14 H -0.9686 3.3532 11.4777 0
M  V30 15 H -2.4430 -2.4956 11.4778 0
M  V30 16 C -10.1829 -4.4688 -3.1703 0
M  V30 17 C -9.7865 -5.6164 -2.5184 0
M  V30 18 C -8.9907 -6.5553 -3.1400 0
M  V30 19 C -8.5704 -6.3538 -4.4546 0
M  V30 20 C -8.9908 -5.1891 -5.0720 0
M  V30 21 C -9.7847 -4.2365 -4.4745 0
M  V30 22 C -10.1895 -3.0260 -5.1947 0
M  V30 23 C -7.7340 -7.3222 -5.1337 0
M  V30 24 C -10.1910 -5.8838 -1.1494 0
M  V30 25 H -10.8063 -3.7238 -2.6968 0
M  V30 26 H -8.6654 -7.4597 -2.6578 0
M  V30 27 H -8.6467 -5.0504 -6.1110 0
M  V30 28 H -10.8052 -2.2683 -4.7583 0
M  V30 29 H -7.4355 -8.2053 -4.6158 0
M  V30 30 H -10.8124 -5.1574 -0.6548 0
M  V30 31 C 8.9616 -6.5843 -3.1703 0
M  V30 32 C 9.7572 -5.6672 -2.5184 0
M  V30 33 C 10.1724 -4.5085 -3.1400 0
M  V30 34 C 9.7878 -4.2452 -4.4546 0
M  V30 35 C 8.9892 -5.1917 -5.0720 0
M  V30 36 C 8.5612 -6.3555 -4.4745 0
M  V30 37 C 7.7153 -7.3114 -5.1947 0
M  V30 38 C 10.2082 -3.0368 -5.1337 0
M  V30 39 C 10.1910 -5.8838 -1.1494 0
M  V30 40 H 8.6281 -7.4967 -2.6968 0
M  V30 41 H 10.7930 -3.7746 -2.6578 0
M  V30 42 H 8.6971 -4.9630 -6.1110 0
M  V30 43 H 7.3670 -8.2234 -4.7583 0
M  V30 44 H 10.8237 -2.3367 -4.6158 0
M  V30 45 H 9.8726 -6.7851 -0.6548 0
M  V30 46 C 1.2214 11.0531 -3.1703 0
M  V30 47 C 0.0293 11.2836 -2.5184 0
M  V30 48 C -1.1817 11.0638 -3.1400 0
M  V30 49 C -1.2174 10.5991 -4.4546 0
M  V30 50 C 0.0015 10.3808 -5.0720 0
M  V30 51 C 1.2234 10.5920 -4.4745 0
M  V30 52 C 2.4742 10.3374 -5.1947 0
M  V30 53 C -2.4742 10.3589 -5.1337 0
M  V30 54 C 0.0000 11.7676 -1.1494 0
M  V30 55 H 2.1783 11.2205 -2.6968 0
M  V30 56 H -2.1276 11.2343 -2.6578 0
M  V30 57 H -0.0504 10.0134 -6.1110 0
M  V30 58 H 3.4382 10.4917 -4.7583 0
M  V30 59 H -3.3882 10.5420 -4.6158 0
M  V30 60 H 0.9397 11.9425 -0.6548 0
M  V30 61 C -9.3721 -5.2936 6.2228 0
M  V30 62 C -8.9302 -4.5187 7.4107 0
M  V30 63 C -8.0184 -3.3866 6.9170 0
M  V30 64 C -6.7755 -4.1137 6.4618 0
M  V30 65 C -7.0724 -4.9180 5.2486 0
M  V30 66 C -8.3297 -5.6903 5.2634 0
M  V30 67 N -6.9962 -4.0393 4.0678 0
M  V30 68 N -5.6534 -3.2640 6.2606 0
M  V30 69 H -10.1811 -4.6973 5.7145 0
M  V30 70 H -9.9203 -6.2047 6.6087 0
M  V30 71 H -8.3336 -5.1827 8.0713 0
M  V30 72 H -9.8036 -4.1199 7.9429 0
M  V30 73 H -7.8508 -2.7113 7.7515 0
M  V30 74 H -8.5064 -2.8960 6.0454 0
M  V30 75 H -6.5153 -4.8265 7.2931 0
M  V30 76 H -6.2067 -5.6316 5.1041 0
M  V30 77 H -8.1172 -6.7940 5.3900 0
M  V30 78 H -8.7721 -5.6324 4.2232 0
M  V30 79 C 9.2904 -5.4651 6.2229 0
M  V30 80 C 8.3988 -5.4699 7.4111 0
M  V30 81 C 6.9620 -5.2479 6.9177 0
M  V30 82 C 6.9688 -3.8083 6.4616 0
M  V30 83 C 7.8133 -3.6631 5.2481 0
M  V30 84 C 9.1114 -4.3646 5.2629 0
M  V30 85 N 7.0141 -4.0379 4.0678 0
M  V30 86 N 5.6713 -3.2627 6.2606 0
M  V30 87 H 9.1792 -6.4642 5.7152 0
M  V30 88 H 10.3536 -5.4830 6.6084 0
M  V30 89 H 8.6749 -4.6206 8.0711 0
M  V30 90 H 8.4911 -6.4253 7.9438 0
M  V30 91 H 6.2938 -5.4406 7.7525 0
M  V30 92 H 6.7815 -5.9165 6.0465 0
M  V30 93 H 7.4557 -3.2256 7.2925 0
M  V30 94 H 7.9973 -2.5566 5.1029 0
M  V30 95 H 9.9604 -3.6279 5.3888 0
M  V30 96 H 9.2825 -4.7771 4.2229 0
M  V30 97 C 0.0769 10.7621 6.2229 0
M  V30 98 C 0.5268 9.9927 7.4114 0
M  V30 99 C 1.0542 8.6379 6.9182 0
M  V30 100 C -0.1952 7.9230 6.4616 0
M  V30 101 C -0.7430 8.5814 5.2478 0
M  V30 102 C -0.7856 10.0563 5.2625 0
M  V30 103 N -0.0179 8.0772 4.0678 0
M  V30 104 N -0.0179 6.5266 6.2606 0
M  V30 105 H 0.9977 11.1661 5.7157 0
M  V30 106 H -0.4401 11.6916 6.6082 0
M  V30 107 H -0.3469 9.8066 8.0710 0
M  V30 108 H 1.3074 10.5510 7.9445 0
M  V30 109 H 1.5550 8.1559 7.7533 0
M  V30 110 H 1.7238 8.8163 6.0474 0
M  V30 111 H -0.9438 8.0528 7.2921 0
M  V30 112 H -1.7930 8.1867 5.1020 0
M  V30 113 H -1.8485 10.4224 5.3879 0
M  V30 114 H -0.5137 10.4109 4.2227 0
M  V30 115 C 1.1240 -10.0656 -7.2288 0
M  V30 116 C -0.2906 -9.8527 -7.6294 0
M  V30 117 C -0.6702 -8.4129 -7.2552 0
M  V30 118 C -0.7101 -8.4441 -5.7459 0
M  V30 119 C 0.6611 -8.6278 -5.2046 0
M  V30 120 C 1.5006 -9.6418 -5.8712 0
M  V30 121 N 1.3335 -7.3168 -5.1642 0
M  V30 122 N -1.3522 -7.3168 -5.1642 0
M  V30 123 H 1.7713 -9.5633 -8.0014 0
M  V30 124 H 1.3460 -11.1651 -7.3745 0
M  V30 125 H -0.9367 -10.5446 -7.0488 0
M  V30 126 H -0.4036 -10.0243 -8.7078 0
M  V30 127 H -1.6303 -8.1956 -7.7150 0
M  V30 128 H 0.1439 -7.7344 -7.5950 0
M  V30 129 H -1.3132 -9.3546 -5.4737 0
M  V30 130 H 0.5523 -8.9034 -4.1130 0
M  V30 131 H 1.6096 -10.5594 -5.2188 0
M  V30 132 H 2.5544 -9.2310 -5.9133 0
M  V30 133 C -8.2473 6.0810 -7.0626 0
M  V30 134 C -9.2197 5.0090 -6.7278 0
M  V30 135 C -8.6865 4.2628 -5.4966 0
M  V30 136 C -7.4839 3.5225 -6.0315 0
M  V30 137 C -6.4099 4.4857 -6.3859 0
M  V30 138 C -6.8283 5.6966 -7.1181 0
M  V30 139 N -5.6604 4.8294 -5.1642 0
M  V30 140 N -7.0033 2.5035 -5.1642 0
M  V30 141 H -8.4084 6.9215 -6.3306 0
M  V30 142 H -8.5742 6.5261 -8.0498 0
M  V30 143 H -9.2698 4.2919 -7.5743 0
M  V30 144 H -10.2059 5.4480 -6.5282 0
M  V30 145 H -9.4787 3.6116 -5.1377 0
M  V30 146 H -8.3600 5.0143 -4.7434 0
M  V30 147 H -7.8276 3.0244 -6.9806 0
M  V30 148 H -5.6535 3.9233 -7.0113 0
M  V30 149 H -6.5076 5.6374 -8.2012 0
M  V30 150 H -6.2166 6.5602 -6.7169 0
M  V30 151 C 8.1551 6.0062 -7.2288 0
M  V30 152 C 8.6780 4.6746 -7.6294 0
M  V30 153 C 7.6209 3.6260 -7.2552 0
M  V30 154 C 7.6679 3.6071 -5.7459 0
M  V30 155 C 7.1413 4.8864 -5.2046 0
M  V30 156 C 7.5998 6.1205 -5.8712 0
M  V30 157 N 5.6698 4.8132 -5.1642 0
M  V30 158 N 7.0126 2.4874 -5.1642 0
M  V30 159 H 7.3964 6.3157 -8.0014 0
M  V30 160 H 8.9963 6.7482 -7.3745 0
M  V30 161 H 9.6003 4.4612 -7.0488 0
M  V30 162 H 8.8831 4.6626 -8.7078 0
M  V30 163 H 7.9127 2.6859 -7.7150 0
M  V30 164 H 6.6263 3.9918 -7.5950 0
M  V30 165 H 8.7580 3.5400 -5.4737 0
M  V30 166 H 7.4344 4.9300 -4.1130 0
M  V30 167 H 8.3399 6.6737 -5.2188 0
M  V30 168 H 6.7171 6.8277 -5.9133 0
M  V30 END ATOM
M  V30 BEGIN BOND
M  V30 1 2 1 2
M  V30 2 1 2 3
M  V30 3 2 3 4
M  V30 4 1 4 5
M  V30 5 2 5 6
M  V30 6 1 6 7
M  V30 7 1 4 8
M  V30 8 1 2 9
M  V30 9 1 6 1
M  V30 10 1 1 10
M  V30 11 1 3 11
M  V30 12 1 5 12
M  V30 13 1 7 13
M  V30 14 1 8 14
M  V30 15 1 9 15
M  V30 16 2 16 17
M  V30 17 1 17 18
M  V30 18 2 18 19
M  V30 19 1 19 20
M  V30 20 2 20 21
M  V30 21 1 21 22
M  V30 22 1 19 23
M  V30 23 1 17 24
M  V30 24 1 21 16
M  V30 25 1 16 25
M  V30 26 1 18 26
M  V30 27 1 20 27
M  V30 28 1 22 28
M  V30 29 1 23 29
M  V30 30 1 24 30
M  V30 31 2 31 32
M  V30 32 1 32 33
M  V30 33 2 33 34
M  V30 34 1 34 35
M  V30 35 2 35 36
M  V30 36 1 36 37
M  V30 37 1 34 38
M  V30 38 1 32 39
M  V30 39 1 36 31
M  V30 40 1 31 40
M  V30 41 1 33 41
M  V30 42 1 35 42
M  V30 43 1 37 43
M  V30 44 1 38 44
M  V30 45 1 39 45
M  V30 46 2 46 47
M  V30 47 1 47 48
M  V30 48 2 48 49
M  V30 49 1 49 50
M  V30 50 2 50 51
M  V30 51 1 51 52
M  V30 52 1 49 53
M  V30 53 1 47 54
M  V30 54 1 51 46
M  V30 55 1 46 55
M  V30 56 1 48 56
M  V30 57 1 50 57
M  V30 58 1 52 58
M  V30 59 1 53 59
M  V30 60 1 54 60
M  V30 61 1 61 62
M  V30 62 1 62 63
M  V30 63 1 63 64
M  V30 64 1 64 65
M  V30 65 1 65 66
M  V30 66 1 65 67
M  V30 67 1 64 68
M  V30 68 1 66 61
M  V30 69 1 61 69
M  V30 70 1 61 70
M  V30 71 1 62 71
M  V30 72 1 62 72
M  V30 73 1 63 73
M  V30 74 1 63 74
M  V30 75 1 64 75
M  V30 76 1 65 76
M  V30 77 1 66 77
M  V30 78 1 66 78
M  V30 79 1 79 80
M  V30 80 1 80 81
M  V30 81 1 81 82
M  V30 82 1 82 83
M  V30 83 1 83 84
M  V30 84 1 83 85
M  V30 85 1 82 86
M  V30 86 1 84 79
M  V30 87 1 79 87
M  V30 88 1 79 88
M  V30 89 1 80 89
M  V30 90 1 80 90
M  V30 91 1 81 91
M  V30 92 1 81 92
M  V30 93 1 82 93
M  V30 94 1 83 94
M  V30 95 1 84 95
M  V30 96 1 84 96
M  V30 97 1 97 98
M  V30 98 1 98 99
M  V30 99 1 99 100
M  V30 100 1 100 101
M  V30 101 1 101 102
M  V30 102 1 101 103
M  V30 103 1 100 104
M  V30 104 1 102 97
M  V30 105 1 97 105
M  V30 106 1 97 106
M  V30 107 1 98 107
M  V30 108 1 98 108
M  V30 109 1 99 109
M  V30 110 1 99 110
M  V30 111 1 100 111
M  V30 112 1 101 112
M  V30 113 1 102 113
M  V30 114 1 102 114
M  V30 115 1 115 116
M  V30 116 1 116 117
M  V30 117 1 117 118
M  V30 118 1 118 119
M  V30 119 1 119 120
M  V30 120 1 119 121
M  V30 121 1 118 122
M  V30 122 1 120 115
M  V30 123 1 115 123
M  V30 124 1 115 124
M  V30 125 1 116 125
M  V30 126 1 116 126
M  V30 127 1 117 127
M  V30 128 1 117 128
M  V30 129 1 118 129
M  V30 130 1 119 130
M  V30 131 1 120 131
M  V30 132 1 120 132
M  V30 133 1 133 134
M  V30 134 1 134 135
M  V30 135 1 135 136
M  V30 136 1 136 137
M  V30 137 1 137 138
M  V30 138 1 137 139
M  V30 139 1 136 140
M  V30 140 1 138 133
M  V30 141 1 133 141
M  V30 142 1 133 142
M  V30 143 1 134 143
M  V30 144 1 134 144
M  V30 145 1 135 145
M  V30 146 1 135 146
M  V30 147 1 136 147
M  V30 148 1 137 148
M  V30 149 1 138 149
M  V30 150 1 138 150
M  V30 151 1 151 152
M  V30 152 1 152 153
M  V30 153 1 153 154
M  V30 154 1 154 155
M  V30 155 1 155 156
M  V30 156 1 155 157
M  V30 157 1 154 158
M  V30 158 1 156 151
M  V30 159 1 151 159
M  V30 160 1 151 160
M  V30 161 1 152 161
M  V30 162 1 152 162
M  V30 163 1 153 163
M  V30 164 1 153 164
M  V30 165 1 154 165
M  V30 166 1 155 166
M  V30 167 1 156 167
M  V30 168 1 156 168
M  V30 169 2 9 68
M  V30 170 2 24 67
M  V30 171 2 7 86
M  V30 172 2 39 85
M  V30 173 2 8 104
M  V30 174 2 54 103
M  V30 175 2 23 122
M  V30 176 2 37 121
M  V30 177 2 22 140
M  V30 178 2 53 139
M  V30 179 2 38 158
M  V30 180 2 52 157
M  V30 END BOND
M  V30 END CTAB
M  END

$$$$
