
     RDKit          3D

  0  0  0  0  0  0  0  0  0  0999 V3000
M  V30 BEGIN CTAB
M  V30 COUNTS 168 180 0 0 0
M  V30 BEGIN ATOM
M  V30 1 C -2.3888 -5.8121 1.1008 0
M  V30 2 C -1.7002 -6.9312 0.5923 0
M  V30 3 C -0.3654 -7.1525 0.9822 0
M  V30 4 C 0.2834 -6.2670 1.8667 0
M  V30 5 C -0.4190 -5.1524 2.3636 0
M  V30 6 C -1.7549 -4.9162 1.9833 0
M  V30 7 C -2.4479 -3.7016 2.4674 0
M  V30 8 C 1.7041 -6.4961 2.2173 0
M  V30 9 C -2.3696 -7.8158 -0.3897 0
M  V30 10 H -3.4081 -5.6073 0.8026 0
M  V30 11 H 0.1582 -8.0030 0.5667 0
M  V30 12 H 0.0990 -4.4695 3.0241 0
M  V30 13 H -1.8216 -2.8960 2.8216 0
M  V30 14 H 2.2707 -7.1330 1.5542 0
M  V30 15 H -3.2032 -7.3909 -0.9292 0
M  V30 16 C 0.9965 -6.8839 -5.1438 0
M  V30 17 C -0.2894 -7.2162 -4.6774 0
M  V30 18 C -1.3678 -6.3574 -4.9628 0
M  V30 19 C -1.1748 -5.1890 -5.7245 0
M  V30 20 C 0.1175 -4.8689 -6.1827 0
M  V30 21 C 1.2123 -5.7051 -5.8831 0
M  V30 22 C 2.5792 -5.3002 -6.2836 0
M  V30 23 C -2.3259 -4.2981 -5.9851 0
M  V30 24 C -0.4746 -8.4412 -3.8689 0
M  V30 25 H 1.8471 -7.5115 -4.9132 0
M  V30 26 H -2.3470 -6.6094 -4.5784 0
M  V30 27 H 0.2538 -3.9535 -6.7423 0
M  V30 28 H 2.7356 -4.2528 -6.4969 0
M  V30 29 H -3.1204 -4.3048 -5.2531 0
M  V30 30 H 0.4093 -8.9660 -3.5309 0
M  V30 31 C 4.2514 -1.9179 -0.3782 0
M  V30 32 C 4.4890 -3.2440 0.0344 0
M  V30 33 C 4.7998 -4.2192 -0.9335 0
M  V30 34 C 4.8605 -3.8838 -2.3019 0
M  V30 35 C 4.5924 -2.5584 -2.6978 0
M  V30 36 C 4.2866 -1.5697 -1.7421 0
M  V30 37 C 3.9425 -0.1997 -2.1885 0
M  V30 38 C 5.1774 -4.9353 -3.2973 0
M  V30 39 C 4.3562 -3.5893 1.4701 0
M  V30 40 H 3.9959 -1.1520 0.3419 0
M  V30 41 H 4.9656 -5.2363 -0.6052 0
M  V30 42 H 4.6116 -2.3190 -3.7522 0
M  V30 43 H 3.5951 -0.0877 -3.2051 0
M  V30 44 H 5.2126 -5.9612 -2.9546 0
M  V30 45 H 3.9719 -2.8285 2.1365 0
M  V30 46 C -2.9683 -0.9845 -2.6006 0
M  V30 47 C -2.8280 -0.7805 -1.2151 0
M  V30 48 C -1.7226 -0.0515 -0.7347 0
M  V30 49 C -0.7587 0.4648 -1.6255 0
M  V30 50 C -0.9168 0.2514 -3.0095 0
M  V30 51 C -2.0208 -0.4706 -3.5054 0
M  V30 52 C -2.1574 -0.6944 -4.9629 0
M  V30 53 C 0.4099 1.2023 -1.0877 0
M  V30 54 C -3.8347 -1.3625 -0.2989 0
M  V30 55 H -3.8003 -1.5551 -2.9908 0
M  V30 56 H -1.6187 0.0809 0.3338 0
M  V30 57 H -0.1626 0.6386 -3.6813 0
M  V30 58 H -1.3165 -0.4485 -5.5980 0
M  V30 59 H 0.5483 1.2158 -0.0146 0
M  V30 60 H -4.5320 -2.0802 -0.7109 0
M  V30 61 C -3.8926 -10.8563 -4.1082 0
M  V30 62 C -4.7642 -10.6103 -2.8574 0
M  V30 63 C -4.1224 -9.5486 -1.9367 0
M  V30 64 C -2.6797 -9.9621 -1.5461 0
M  V30 65 C -1.7955 -10.1650 -2.8072 0
M  V30 66 C -2.4393 -11.2301 -3.7226 0
M  V30 67 N -1.6697 -8.9202 -3.5975 0
M  V30 68 N -2.0003 -9.0710 -0.5633 0
M  V30 69 H -3.8787 -9.9525 -4.7231 0
M  V30 70 H -4.3303 -11.6477 -4.7187 0
M  V30 71 H -4.8895 -11.5449 -2.3073 0
M  V30 72 H -5.7587 -10.2787 -3.1620 0
M  V30 73 H -4.7248 -9.4243 -1.0360 0
M  V30 74 H -4.1015 -8.5928 -2.4624 0
M  V30 75 H -2.7490 -10.9361 -1.0595 0
M  V30 76 H -0.8126 -10.5187 -2.4869 0
M  V30 77 H -2.4316 -12.1945 -3.2140 0
M  V30 78 H -1.8375 -11.3382 -4.6263 0
M  V30 79 C 6.5878 -6.5724 3.4448 0
M  V30 80 C 5.6741 -7.7932 3.6890 0
M  V30 81 C 4.2675 -7.5525 3.1004 0
M  V30 82 C 3.6502 -6.2619 3.6939 0
M  V30 83 C 4.5458 -5.0246 3.4071 0
M  V30 84 C 5.9539 -5.2690 3.9923 0
M  V30 85 N 4.7044 -4.7630 1.9550 0
M  V30 86 N 2.2343 -6.0006 3.3194 0
M  V30 87 H 6.7619 -6.4614 2.3715 0
M  V30 88 H 7.5612 -6.7357 3.9100 0
M  V30 89 H 5.5939 -7.9834 4.7609 0
M  V30 90 H 6.1155 -8.6823 3.2350 0
M  V30 91 H 3.6210 -8.4033 3.3199 0
M  V30 92 H 4.3462 -7.4599 2.0160 0
M  V30 93 H 3.6417 -6.3874 4.7779 0
M  V30 94 H 4.1022 -4.1599 3.9061 0
M  V30 95 H 5.8872 -5.3233 5.0794 0
M  V30 96 H 6.5949 -4.4197 3.7512 0
M  V30 97 C -5.1160 0.4712 3.3240 0
M  V30 98 C -4.5275 -0.3562 4.4872 0
M  V30 99 C -3.6503 -1.5077 3.9520 0
M  V30 100 C -4.4642 -2.4031 2.9852 0
M  V30 101 C -5.0233 -1.5821 1.7917 0
M  V30 102 C -5.8913 -0.4217 2.3237 0
M  V30 103 N -3.9490 -0.9902 0.9584 0
M  V30 104 N -3.7646 -3.6227 2.5008 0
M  V30 105 H -4.3049 0.9772 2.7946 0
M  V30 106 H -5.7744 1.2485 3.7150 0
M  V30 107 H -5.3371 -0.7647 5.0949 0
M  V30 108 H -3.9310 0.2892 5.1346 0
M  V30 109 H -3.2769 -2.1086 4.7823 0
M  V30 110 H -2.7914 -1.0846 3.4287 0
M  V30 111 H -5.3306 -2.7648 3.5414 0
M  V30 112 H -5.6539 -2.2407 1.1900 0
M  V30 113 H -6.7789 -0.8303 2.8074 0
M  V30 114 H -6.2338 0.1836 1.4830 0
M  V30 115 C 7.4700 -4.2365 -6.7572 0
M  V30 116 C 6.5399 -4.2547 -7.9896 0
M  V30 117 C 5.0713 -4.4768 -7.5652 0
M  V30 118 C 4.9407 -5.7832 -6.7435 0
M  V30 119 C 5.8424 -5.7484 -5.4783 0
M  V30 120 C 7.3098 -5.5199 -5.9033 0
M  V30 121 N 5.4748 -4.6522 -4.5489 0
M  V30 122 N 3.5548 -6.1824 -6.3850 0
M  V30 123 H 7.2342 -3.3651 -6.1409 0
M  V30 124 H 8.5083 -4.1289 -7.0746 0
M  V30 125 H 6.8493 -5.0494 -8.6712 0
M  V30 126 H 6.6281 -3.3117 -8.5323 0
M  V30 127 H 4.4318 -4.5310 -8.4470 0
M  V30 128 H 4.7441 -3.6276 -6.9636 0
M  V30 129 H 5.3229 -6.5900 -7.3710 0
M  V30 130 H 5.7656 -6.7163 -4.9774 0
M  V30 131 H 7.6594 -6.3834 -6.4698 0
M  V30 132 H 7.9348 -5.4467 -5.0119 0
M  V30 133 C -5.9308 -0.9716 -6.9045 0
M  V30 134 C -6.1350 -2.4506 -7.2974 0
M  V30 135 C -4.9460 -3.3108 -6.8205 0
M  V30 136 C -3.6131 -2.7573 -7.3859 0
M  V30 137 C -3.3846 -1.2802 -6.9638 0
M  V30 138 C -4.5808 -0.4232 -7.4332 0
M  V30 139 N -3.2828 -1.1235 -5.4951 0
M  V30 140 N -2.4202 -3.5970 -7.0982 0
M  V30 141 H -5.9507 -0.8820 -5.8155 0
M  V30 142 H -6.7539 -0.3662 -7.2874 0
M  V30 143 H -6.2366 -2.5338 -8.3809 0
M  V30 144 H -7.0604 -2.8256 -6.8561 0
M  V30 145 H -5.0791 -4.3447 -7.1414 0
M  V30 146 H -4.9206 -3.2999 -5.7303 0
M  V30 147 H -3.7107 -2.7540 -8.4728 0
M  V30 148 H -2.4782 -0.9159 -7.4525 0
M  V30 149 H -4.5983 -0.3966 -8.5230 0
M  V30 150 H -4.4426 0.6027 -7.0884 0
M  V30 151 C 2.2260 4.4397 -3.0716 0
M  V30 152 C 3.5832 3.9781 -3.6461 0
M  V30 153 C 3.8273 2.4826 -3.3471 0
M  V30 154 C 3.7392 2.2172 -1.8238 0
M  V30 155 C 2.3545 2.6351 -1.2552 0
M  V30 156 C 2.1115 4.1294 -1.5574 0
M  V30 157 N 1.2353 1.8745 -1.8636 0
M  V30 158 N 4.0920 0.8402 -1.3907 0
M  V30 159 H 1.4179 3.9316 -3.6039 0
M  V30 160 H 2.0933 5.5092 -3.2414 0
M  V30 161 H 4.3876 4.5747 -3.2119 0
M  V30 162 H 3.6033 4.1456 -4.7245 0
M  V30 163 H 4.8086 2.1833 -3.7171 0
M  V30 164 H 3.0758 1.8898 -3.8699 0
M  V30 165 H 4.4761 2.8669 -1.3485 0
M  V30 166 H 2.3716 2.4916 -0.1723 0
M  V30 167 H 2.8353 4.7295 -1.0054 0
M  V30 168 H 1.1202 4.4112 -1.1993 0
M  V30 END ATOM
M  V30 BEGIN BOND
M  V30 1 2 1 2
M  V30 2 1 2 3
M  V30 3 2 3 4
M  V30 4 1 4 5
M  V30 5 2 5 6
M  V30 6 1 6 7
M  V30 7 1 4 8
M  V30 8 1 2 9
M  V30 9 1 6 1
M  V30 10 1 1 10
M  V30 11 1 3 11
M  V30 12 1 5 12
M  V30 13 1 7 13
M  V30 14 1 8 14
M  V30 15 1 9 15
M  V30 16 2 16 17
M  V30 17 1 17 18
M  V30 18 2 18 19
M  V30 19 1 19 20
M  V30 20 2 20 21
M  V30 21 1 21 22
M  V30 22 1 19 23
M  V30 23 1 17 24
M  V30 24 1 21 16
M  V30 25 1 16 25
M  V30 26 1 18 26
M  V30 27 1 20 27
M  V30 28 1 22 28
M  V30 29 1 23 29
M  V30 30 1 24 30
M  V30 31 2 31 32
M  V30 32 1 32 33
M  V30 33 2 33 34
M  V30 34 1 34 35
M  V30 35 2 35 36
M  V30 36 1 36 37
M  V30 37 1 34 38
M  V30 38 1 32 39
M  V30 39 1 36 31
M  V30 40 1 31 40
M  V30 41 1 33 41
M  V30 42 1 35 42
M  V30 43 1 37 43
M  V30 44 1 38 44
M  V30 45 1 39 45
M  V30 46 2 46 47
M  V30 47 1 47 48
M  V30 48 2 48 49
M  V30 49 1 49 50
M  V30 50 2 50 51
M  V30 51 1 51 52
M  V30 52 1 49 53
M  V30 53 1 47 54
M  V30 54 1 51 46
M  V30 55 1 46 55
M  V30 56 1 48 56
M  V30 57 1 50 57
M  V30 58 1 52 58
M  V30 59 1 53 59
M  V30 60 1 54 60
M  V30 61 1 61 62
M  V30 62 1 62 63
M  V30 63 1 63 64
M  V30 64 1 64 65
M  V30 65 1 65 66
M  V30 66 1 65 67
M  V30 67 1 64 68
M  V30 68 1 66 61
M  V30 69 1 61 69
M  V30 70 1 61 70
M  V30 71 1 62 71
M  V30 72 1 62 72
M  V30 73 1 63 73
M  V30 74 1 63 74
M  V30 75 1 64 75
M  V30 76 1 65 76
M  V30 77 1 66 77
M  V30 78 1 66 78
M  V30 79 1 79 80
M  V30 80 1 80 81
M  V30 81 1 81 82
M  V30 82 1 82 83
M  V30 83 1 83 84
M  V30 84 1 83 85
M  V30 85 1 82 86
M  V30 86 1 84 79
M  V30 87 1 79 87
M  V30 88 1 79 88
M  V30 89 1 80 89
M  V30 90 1 80 90
M  V30 91 1 81 91
M  V30 92 1 81 92
M  V30 93 1 82 93
M  V30 94 1 83 94
M  V30 95 1 84 95
M  V30 96 1 84 96
M  V30 97 1 97 98
M  V30 98 1 98 99
M  V30 99 1 99 100
M  V30 100 1 100 101
M  V30 101 1 101 102
M  V30 102 1 101 103
M  V30 103 1 100 104
M  V30 104 1 102 97
M  V30 105 1 97 105
M  V30 106 1 97 106
M  V30 107 1 98 107
M  V30 108 1 98 108
M  V30 109 1 99 109
M  V30 110 1 99 110
M  V30 111 1 100 111
M  V30 112 1 101 112
M  V30 113 1 102 113
M  V30 114 1 102 114
M  V30 115 1 115 116
M  V30 116 1 116 117
M  V30 117 1 117 118
M  V30 118 1 118 119
M  V30 119 1 119 120
M  V30 120 1 119 121
M  V30 121 1 118 122
M  V30 122 1 120 115
M  V30 123 1 115 123
M  V30 124 1 115 124
M  V30 125 1 116 125
M  V30 126 1 116 126
M  V30 127 1 117 127
M  V30 128 1 117 128
M  V30 129 1 118 129
M  V30 130 1 119 130
M  V30 131 1 120 131
M  V30 132 1 120 132
M  V30 133 1 133 134
M  V30 134 1 134 135
M  V30 135 1 135 136
M  V30 136 1 136 137
M  V30 137 1 137 138
M  V30 138 1 137 139
M  V30 139 1 136 140
M  V30 140 1 138 133
M  V30 141 1 133 141
M  V30 142 1 133 142
M  V30 143 1 134 143
M  V30 144 1 134 144
M  V30 145 1 135 145
M  V30 146 1 135 146
M  V30 147 1 136 147
M  V30 148 1 137 148
M  V30 149 1 138 149
M  V30 150 1 138 150
M  V30 151 1 151 152
M  V30 152 1 152 153
M  V30 153 1 153 154
M  V30 154 1 154 155
M  V30 155 1 155 156
M  V30 156 1 155 157
M  V30 157 1 154 158
M  V30 158 1 156 151
M  V30 159 1 151 159
M  V30 160 1 151 160
M  V30 161 1 152 161
M  V30 162 1 152 162
M  V30 163 1 153 163
M  V30 164 1 153 164
M  V30 165 1 154 165
M  V30 166 1 155 166
M  V30 167 1 156 167
M  V30 168 1 156 168
M  V30 169 2 9 68
M  V30 170 2 24 67
M  V30 171 2 8 86
M  V30 172 2 39 85
M  V30 173 2 7 104
M  V30 174 2 54 103
M  V30 175 2 22 122
M  V30 176 2 38 121
M  V30 177 2 23 140
M  V30 178 2 52 139
M  V30 179 2 37 158
M  V30 180 2 53 157
M  V30 END BOND
M  V30 END CTAB
M  END

$$$$
