
     RDKit          3D

  0  0  0  0  0  0  0  0  0  0999 V3000
M  V30 BEGIN CTAB
M  V30 COUNTS 168 180 0 0 0
M  V30 BEGIN ATOM
M  V30 1 C 5.6968 -10.9142 -0.9226 0
M  V30 2 C 4.3007 -11.0081 -1.0807 0
M  V30 3 C 3.4557 -10.4510 -0.0980 0
M  V30 4 C 3.9995 -9.7918 1.0221 0
M  V30 5 C 5.3985 -9.7034 1.1605 0
M  V30 6 C 6.2538 -10.2666 0.1959 0
M  V30 7 C 7.7236 -10.1452 0.3100 0
M  V30 8 C 3.1366 -9.1430 2.0327 0
M  V30 9 C 3.7167 -11.6317 -2.2906 0
M  V30 10 H 6.3341 -11.3337 -1.6896 0
M  V30 11 H 2.3798 -10.4989 -0.1993 0
M  V30 12 H 5.8390 -9.1872 2.0029 0
M  V30 13 H 8.2898 -10.2152 -0.6071 0
M  V30 14 H 3.5678 -8.3132 2.5726 0
M  V30 15 H 2.7109 -11.3396 -2.5550 0
M  V30 16 C 3.4385 -8.3031 -5.7970 0
M  V30 17 C 4.7381 -8.7972 -6.0142 0
M  V30 18 C 5.7611 -7.9025 -6.3863 0
M  V30 19 C 5.4944 -6.5271 -6.5345 0
M  V30 20 C 4.1809 -6.0543 -6.3409 0
M  V30 21 C 3.1499 -6.9366 -5.9690 0
M  V30 22 C 1.7773 -6.4523 -5.7155 0
M  V30 23 C 6.5817 -5.5626 -6.8174 0
M  V30 24 C 5.0557 -10.2286 -5.8117 0
M  V30 25 H 2.6662 -8.9930 -5.4848 0
M  V30 26 H 6.7747 -8.2513 -6.5320 0
M  V30 27 H 3.9466 -5.0038 -6.4465 0
M  V30 28 H 1.1818 -7.0253 -5.0201 0
M  V30 29 H 6.4016 -4.5336 -6.5436 0
M  V30 30 H 6.0973 -10.5202 -5.7923 0
M  V30 31 C 9.3390 -6.0185 -1.8009 0
M  V30 32 C 8.9650 -5.6649 -0.4891 0
M  V30 33 C 8.3229 -4.4318 -0.2654 0
M  V30 34 C 8.0336 -3.5657 -1.3358 0
M  V30 35 C 8.4114 -3.9339 -2.6415 0
M  V30 36 C 9.0732 -5.1537 -2.8829 0
M  V30 37 C 9.4648 -5.5531 -4.2557 0
M  V30 38 C 7.2883 -2.3066 -1.1165 0
M  V30 39 C 9.2070 -6.5680 0.6594 0
M  V30 40 H 9.8176 -6.9751 -1.9613 0
M  V30 41 H 8.0081 -4.1441 0.7290 0
M  V30 42 H 8.1875 -3.2911 -3.4819 0
M  V30 43 H 9.7755 -6.5764 -4.4200 0
M  V30 44 H 6.7641 -1.8978 -1.9677 0
M  V30 45 H 8.7439 -6.3147 1.6041 0
M  V30 46 C 2.2975 -4.6026 0.8306 0
M  V30 47 C 1.3384 -5.4113 0.1906 0
M  V30 48 C 0.9652 -5.1200 -1.1358 0
M  V30 49 C 1.5394 -4.0340 -1.8227 0
M  V30 50 C 2.5009 -3.2385 -1.1719 0
M  V30 51 C 2.8843 -3.5144 0.1546 0
M  V30 52 C 3.9077 -2.6954 0.8410 0
M  V30 53 C 1.1608 -3.7167 -3.2168 0
M  V30 54 C 0.7230 -6.5720 0.8717 0
M  V30 55 H 2.5851 -4.8449 1.8448 0
M  V30 56 H 0.2420 -5.7343 -1.6550 0
M  V30 57 H 2.9727 -2.4119 -1.6861 0
M  V30 58 H 4.3207 -3.0678 1.7692 0
M  V30 59 H 1.7434 -2.9717 -3.7430 0
M  V30 60 H 0.1409 -7.2567 0.2688 0
M  V30 61 C 2.4934 -13.3834 -6.8579 0
M  V30 62 C 1.8296 -13.9340 -5.5765 0
M  V30 63 C 2.2809 -13.1346 -4.3342 0
M  V30 64 C 3.8248 -13.1549 -4.2154 0
M  V30 65 C 4.4925 -12.5577 -5.4839 0
M  V30 66 C 4.0365 -13.3497 -6.7287 0
M  V30 67 N 4.1143 -11.1403 -5.6865 0
M  V30 68 N 4.3868 -12.5281 -2.9898 0
M  V30 69 H 2.1290 -12.3704 -7.0472 0
M  V30 70 H 2.2064 -13.9903 -7.7183 0
M  V30 71 H 2.0934 -14.9859 -5.4496 0
M  V30 72 H 0.7437 -13.8816 -5.6724 0
M  V30 73 H 1.8374 -13.5617 -3.4339 0
M  V30 74 H 1.9311 -12.1051 -4.4265 0
M  V30 75 H 4.1264 -14.2024 -4.1712 0
M  V30 76 H 5.5755 -12.6535 -5.3781 0
M  V30 77 H 4.4216 -14.3682 -6.6687 0
M  V30 78 H 4.4684 -12.8940 -7.6209 0
M  V30 79 C 12.5766 -9.0872 0.9946 0
M  V30 80 C 12.1163 -10.5452 0.7764 0
M  V30 81 C 10.6027 -10.6038 0.4712 0
M  V30 82 C 9.7941 -9.9185 1.6015 0
M  V30 83 C 10.2308 -8.4409 1.7929 0
M  V30 84 C 11.7430 -8.3912 2.0994 0
M  V30 85 N 9.9973 -7.6175 0.5814 0
M  V30 86 N 8.3159 -10.0207 1.4818 0
M  V30 87 H 12.4693 -8.5299 0.0601 0
M  V30 88 H 13.6352 -9.0641 1.2583 0
M  V30 89 H 12.3340 -11.1359 1.6685 0
M  V30 90 H 12.6750 -10.9886 -0.0500 0
M  V30 91 H 10.2824 -11.6415 0.3691 0
M  V30 92 H 10.4145 -10.0980 -0.4769 0
M  V30 93 H 10.0472 -10.4370 2.5277 0
M  V30 94 H 9.6851 -8.0306 2.6459 0
M  V30 95 H 11.9315 -8.8733 3.0594 0
M  V30 96 H 12.0557 -7.3502 2.1936 0
M  V30 97 C -0.0301 -6.8099 5.0883 0
M  V30 98 C 0.9585 -7.8463 5.6628 0
M  V30 99 C 1.9103 -8.3541 4.5606 0
M  V30 100 C 1.1044 -8.9563 3.3811 0
M  V30 101 C 0.1162 -7.9215 2.7778 0
M  V30 102 C -0.8174 -7.3862 3.8858 0
M  V30 103 N 0.8089 -6.7596 2.1719 0
M  V30 104 N 1.9316 -9.5941 2.3217 0
M  V30 105 H 0.5211 -5.9237 4.7635 0
M  V30 106 H -0.7241 -6.4858 5.8656 0
M  V30 107 H 0.4075 -8.6870 6.0886 0
M  V30 108 H 1.5380 -7.3963 6.4711 0
M  V30 109 H 2.5857 -9.1088 4.9660 0
M  V30 110 H 2.5151 -7.5172 4.2100 0
M  V30 111 H 0.4923 -9.7587 3.7961 0
M  V30 112 H -0.4945 -8.4314 2.0293 0
M  V30 113 H -1.4634 -8.1950 4.2282 0
M  V30 114 H -1.4631 -6.6126 3.4674 0
M  V30 115 C 10.7505 -2.7759 -7.1892 0
M  V30 116 C 9.5958 -2.6166 -8.2032 0
M  V30 117 C 8.3843 -3.4873 -7.8020 0
M  V30 118 C 8.8100 -4.9714 -7.6545 0
M  V30 119 C 9.9340 -5.1311 -6.5945 0
M  V30 120 C 11.1435 -4.2632 -7.0043 0
M  V30 121 N 9.4981 -4.6878 -5.2484 0
M  V30 122 N 7.7077 -5.9357 -7.3938 0
M  V30 123 H 10.4443 -2.3647 -6.2238 0
M  V30 124 H 11.6180 -2.2012 -7.5175 0
M  V30 125 H 9.9393 -2.9052 -9.1985 0
M  V30 126 H 9.2941 -1.5687 -8.2566 0
M  V30 127 H 7.5998 -3.4033 -8.5551 0
M  V30 128 H 7.9835 -3.1199 -6.8559 0
M  V30 129 H 9.2418 -5.2723 -8.6105 0
M  V30 130 H 10.2430 -6.1787 -6.5726 0
M  V30 131 H 11.5628 -4.6491 -7.9340 0
M  V30 132 H 11.9199 -4.3457 -6.2423 0
M  V30 133 C -2.7173 -4.4860 -4.8237 0
M  V30 134 C -2.5725 -5.6379 -5.8402 0
M  V30 135 C -1.1211 -6.1590 -5.8616 0
M  V30 136 C -0.1389 -5.0073 -6.1907 0
M  V30 137 C -0.2548 -3.8450 -5.1682 0
M  V30 138 C -1.7151 -3.3421 -5.1218 0
M  V30 139 N 0.1103 -4.2588 -3.7955 0
M  V30 140 N 1.2717 -5.4331 -6.3822 0
M  V30 141 H -2.5372 -4.8688 -3.8156 0
M  V30 142 H -3.7375 -4.0994 -4.8392 0
M  V30 143 H -2.8519 -5.2885 -6.8362 0
M  V30 144 H -3.2518 -6.4513 -5.5786 0
M  V30 145 H -1.0179 -6.9512 -6.6043 0
M  V30 146 H -0.8844 -6.5822 -4.8845 0
M  V30 147 H -0.4486 -4.5971 -7.1530 0
M  V30 148 H 0.3860 -3.0263 -5.5037 0
M  V30 149 H -1.9645 -2.8780 -6.0766 0
M  V30 150 H -1.8034 -2.5706 -4.3554 0
M  V30 151 C 4.2677 1.4742 0.2657 0
M  V30 152 C 5.5233 1.7179 -0.5994 0
M  V30 153 C 6.1914 0.3813 -0.9873 0
M  V30 154 C 6.5406 -0.4351 0.2827 0
M  V30 155 C 5.2713 -0.7187 1.1300 0
M  V30 156 C 4.6013 0.6185 1.5131 0
M  V30 157 N 4.2736 -1.5177 0.3821 0
M  V30 158 N 7.2979 -1.6934 0.0511 0
M  V30 159 H 3.5099 0.9597 -0.3313 0
M  V30 160 H 3.8353 2.4275 0.5739 0
M  V30 161 H 6.2357 2.3337 -0.0472 0
M  V30 162 H 5.2486 2.2681 -1.5011 0
M  V30 163 H 7.0984 0.5702 -1.5625 0
M  V30 164 H 5.5050 -0.1884 -1.6161 0
M  V30 165 H 7.1907 0.1907 0.8963 0
M  V30 166 H 5.5737 -1.2375 2.0426 0
M  V30 167 H 5.2670 1.1778 2.1712 0
M  V30 168 H 3.6879 0.4145 2.0739 0
M  V30 END ATOM
M  V30 BEGIN BOND
M  V30 1 2 1 2
M  V30 2 1 2 3
M  V30 3 2 3 4
M  V30 4 1 4 5
M  V30 5 2 5 6
M  V30 6 1 6 7
M  V30 7 1 4 8
M  V30 8 1 2 9
M  V30 9 1 6 1
M  V30 10 1 1 10
M  V30 11 1 3 11
M  V30 12 1 5 12
M  V30 13 1 7 13
M  V30 14 1 8 14
M  V30 15 1 9 15
M  V30 16 2 16 17
M  V30 17 1 17 18
M  V30 18 2 18 19
M  V30 19 1 19 20
M  V30 20 2 20 21
M  V30 21 1 21 22
M  V30 22 1 19 23
M  V30 23 1 17 24
M  V30 24 1 21 16
M  V30 25 1 16 25
M  V30 26 1 18 26
M  V30 27 1 20 27
M  V30 28 1 22 28
M  V30 29 1 23 29
M  V30 30 1 24 30
M  V30 31 2 31 32
M  V30 32 1 32 33
M  V30 33 2 33 34
M  V30 34 1 34 35
M  V30 35 2 35 36
M  V30 36 1 36 37
M  V30 37 1 34 38
M  V30 38 1 32 39
M  V30 39 1 36 31
M  V30 40 1 31 40
M  V30 41 1 33 41
M  V30 42 1 35 42
M  V30 43 1 37 43
M  V30 44 1 38 44
M  V30 45 1 39 45
M  V30 46 2 46 47
M  V30 47 1 47 48
M  V30 48 2 48 49
M  V30 49 1 49 50
M  V30 50 2 50 51
M  V30 51 1 51 52
M  V30 52 1 49 53
M  V30 53 1 47 54
M  V30 54 1 51 46
M  V30 55 1 46 55
M  V30 56 1 48 56
M  V30 57 1 50 57
M  V30 58 1 52 58
M  V30 59 1 53 59
M  V30 60 1 54 60
M  V30 61 1 61 62
M  V30 62 1 62 63
M  V30 63 1 63 64
M  V30 64 1 64 65
M  V30 65 1 65 66
M  V30 66 1 65 67
M  V30 67 1 64 68
M  V30 68 1 66 61
M  V30 69 1 61 69
M  V30 70 1 61 70
M  V30 71 1 62 71
M  V30 72 1 62 72
M  V30 73 1 63 73
M  V30 74 1 63 74
M  V30 75 1 64 75
M  V30 76 1 65 76
M  V30 77 1 66 77
M  V30 78 1 66 78
M  V30 79 1 79 80
M  V30 80 1 80 81
M  V30 81 1 81 82
M  V30 82 1 82 83
M  V30 83 1 83 84
M  V30 84 1 83 85
M  V30 85 1 82 86
M  V30 86 1 84 79
M  V30 87 1 79 87
M  V30 88 1 79 88
M  V30 89 1 80 89
M  V30 90 1 80 90
M  V30 91 1 81 91
M  V30 92 1 81 92
M  V30 93 1 82 93
M  V30 94 1 83 94
M  V30 95 1 84 95
M  V30 96 1 84 96
M  V30 97 1 97 98
M  V30 98 1 98 99
M  V30 99 1 99 100
M  V30 100 1 100 101
M  V30 101 1 101 102
M  V30 102 1 101 103
M  V30 103 1 100 104
M  V30 104 1 102 97
M  V30 105 1 97 105
M  V30 106 1 97 106
M  V30 107 1 98 107
M  V30 108 1 98 108
M  V30 109 1 99 109
M  V30 110 1 99 110
M  V30 111 1 100 111
M  V30 112 1 101 112
M  V30 113 1 102 113
M  V30 114 1 102 114
M  V30 115 1 115 116
M  V30 116 1 116 117
M  V30 117 1 117 118
M  V30 118 1 118 119
M  V30 119 1 119 120
M  V30 120 1 119 121
M  V30 121 1 118 122
M  V30 122 1 120 115
M  V30 123 1 115 123
M  V30 124 1 115 124
M  V30 125 1 116 125
M  V30 126 1 116 126
M  V30 127 1 117 127
M  V30 128 1 117 128
M  V30 129 1 118 129
M  V30 130 1 119 130
M  V30 131 1 120 131
M  V30 132 1 120 132
M  V30 133 1 133 134
M  V30 134 1 134 135
M  V30 135 1 135 136
M  V30 136 1 136 137
M  V30 137 1 137 138
M  V30 138 1 137 139
M  V30 139 1 136 140
M  V30 140 1 138 133
M  V30 141 1 133 141
M  V30 142 1 133 142
M  V30 143 1 134 143
M  V30 144 1 134 144
M  V30 145 1 135 145
M  V30 146 1 135 146
M  V30 147 1 136 147
M  V30 148 1 137 148
M  V30 149 1 138 149
M  V30 150 1 138 150
M  V30 151 1 151 152
M  V30 152 1 152 153
M  V30 153 1 153 154
M  V30 154 1 154 155
M  V30 155 1 155 156
M  V30 156 1 155 157
M  V30 157 1 154 158
M  V30 158 1 156 151
M  V30 159 1 151 159
M  V30 160 1 151 160
M  V30 161 1 152 161
M  V30 162 1 152 162
M  V30 163 1 153 163
M  V30 164 1 153 164
M  V30 165 1 154 165
M  V30 166 1 155 166
M  V30 167 1 156 167
M  V30 168 1 156 168
M  V30 169 2 9 68
M  V30 170 2 24 67
M  V30 171 2 7 86
M  V30 172 2 39 85
M  V30 173 2 8 104
M  V30 174 2 54 103
M  V30 175 2 23 122
M  V30 176 2 37 121
M  V30 177 2 22 140
M  V30 178 2 53 139
M  V30 179 2 38 158
M  V30 180 2 52 157
M  V30 END BOND
M  V30 END CTAB
M  END

$$$$
