
     RDKit          3D

  0  0  0  0  0  0  0  0  0  0999 V3000
M  V30 BEGIN CTAB
M  V30 COUNTS 30 32 0 0 0
M  V30 BEGIN ATOM
M  V30 1 C 0.6415 10.3447 3.6011 0
M  V30 2 N 0.0349 9.5671 2.6747 0
M  V30 3 C -0.5583 8.4326 3.0874 0
M  V30 4 C -0.5647 8.0453 4.4138 0
M  V30 5 C 0.0520 8.8340 5.3618 0
M  V30 6 C 0.0439 8.4223 6.7634 0
M  V30 7 C 0.0426 9.3512 7.7821 0
M  V30 8 C 0.0345 8.9781 9.1246 0
M  V30 9 C 0.0274 7.6425 9.4720 0
M  V30 10 C 0.0285 6.6892 8.4741 0
M  V30 11 C 0.0203 5.2895 8.8438 0
M  V30 12 C -0.5886 4.3519 8.0451 0
M  V30 13 C -0.5618 3.0374 8.4526 0
M  V30 14 N 0.0349 2.6470 9.5949 0
M  V30 15 C 0.6352 3.5501 10.3880 0
M  V30 16 C 0.6215 4.8559 10.0058 0
M  V30 17 C 0.0367 7.0881 7.1362 0
M  V30 18 C 0.6595 9.9968 4.9356 0
M  V30 19 H 1.1099 11.2547 3.2246 0
M  V30 20 H -1.0660 7.7649 2.3736 0
M  V30 21 H -1.0393 7.1326 4.7567 0
M  V30 22 H 0.0481 10.4070 7.5228 0
M  V30 23 H 0.0337 9.7250 9.9027 0
M  V30 24 H 0.0210 7.3260 10.5163 0
M  V30 25 H -1.0876 4.6117 7.1080 0
M  V30 26 H -1.0423 2.2793 7.8266 0
M  V30 27 H 1.1169 3.2158 11.3161 0
M  V30 28 H 1.1207 5.5613 10.6783 0
M  V30 29 H 0.0375 6.3519 6.3619 0
M  V30 30 H 1.1544 10.6507 5.6232 0
M  V30 END ATOM
M  V30 BEGIN BOND
M  V30 1 2 1 2
M  V30 2 1 2 3
M  V30 3 2 3 4
M  V30 4 1 4 5
M  V30 5 1 5 6
M  V30 6 2 6 7
M  V30 7 1 7 8
M  V30 8 2 8 9
M  V30 9 1 9 10
M  V30 10 1 10 11
M  V30 11 2 11 12
M  V30 12 1 12 13
M  V30 13 2 13 14
M  V30 14 1 14 15
M  V30 15 2 15 16
M  V30 16 2 10 17
M  V30 17 2 5 18
M  V30 18 1 18 1
M  V30 19 1 17 6
M  V30 20 1 16 11
M  V30 21 1 1 19
M  V30 22 1 3 20
M  V30 23 1 4 21
M  V30 24 1 7 22
M  V30 25 1 8 23
M  V30 26 1 9 24
M  V30 27 1 12 25
M  V30 28 1 13 26
M  V30 29 1 15 27
M  V30 30 1 16 28
M  V30 31 1 17 29
M  V30 32 1 18 30
M  V30 END BOND
M  V30 END CTAB
M  END

$$$$
