
     RDKit          3D

  0  0  0  0  0  0  0  0  0  0999 V3000
M  V30 BEGIN CTAB
M  V30 COUNTS 30 32 0 0 0
M  V30 BEGIN ATOM
M  V30 1 C 0.6186 -8.6679 -2.2291 0
M  V30 2 N 0.0120 -7.8903 -1.3028 0
M  V30 3 C -0.5812 -6.7558 -1.7154 0
M  V30 4 C -0.5876 -6.3684 -3.0419 0
M  V30 5 C 0.0291 -7.1572 -3.9898 0
M  V30 6 C 0.0209 -6.7455 -5.3915 0
M  V30 7 C 0.0196 -7.6744 -6.4102 0
M  V30 8 C 0.0116 -7.3013 -7.7527 0
M  V30 9 C 0.0045 -5.9657 -8.1001 0
M  V30 10 C 0.0056 -5.0124 -7.1021 0
M  V30 11 C -0.0026 -3.6127 -7.4718 0
M  V30 12 C -0.6115 -2.6751 -6.6732 0
M  V30 13 C -0.5847 -1.3605 -7.0807 0
M  V30 14 N 0.0120 -0.9701 -8.2230 0
M  V30 15 C 0.6123 -1.8733 -9.0161 0
M  V30 16 C 0.5986 -3.1790 -8.6338 0
M  V30 17 C 0.0138 -5.4113 -5.7643 0
M  V30 18 C 0.6366 -8.3199 -3.5637 0
M  V30 19 H 1.0870 -9.5778 -1.8527 0
M  V30 20 H -1.0889 -6.0881 -1.0016 0
M  V30 21 H -1.0622 -5.4558 -3.3848 0
M  V30 22 H 0.0252 -8.7301 -6.1509 0
M  V30 23 H 0.0107 -8.0482 -8.5308 0
M  V30 24 H -0.0019 -5.6491 -9.1443 0
M  V30 25 H -1.1105 -2.9349 -5.7361 0
M  V30 26 H -1.0652 -0.6025 -6.4547 0
M  V30 27 H 1.0939 -1.5390 -9.9442 0
M  V30 28 H 1.0978 -3.8845 -9.3063 0
M  V30 29 H 0.0146 -4.6751 -4.9900 0
M  V30 30 H 1.1314 -8.9739 -4.2512 0
M  V30 END ATOM
M  V30 BEGIN BOND
M  V30 1 2 1 2
M  V30 2 1 2 3
M  V30 3 2 3 4
M  V30 4 1 4 5
M  V30 5 1 5 6
M  V30 6 2 6 7
M  V30 7 1 7 8
M  V30 8 2 8 9
M  V30 9 1 9 10
M  V30 10 1 10 11
M  V30 11 2 11 12
M  V30 12 1 12 13
M  V30 13 2 13 14
M  V30 14 1 14 15
M  V30 15 2 15 16
M  V30 16 2 10 17
M  V30 17 2 5 18
M  V30 18 1 18 1
M  V30 19 1 17 6
M  V30 20 1 16 11
M  V30 21 1 1 19
M  V30 22 1 3 20
M  V30 23 1 4 21
M  V30 24 1 7 22
M  V30 25 1 8 23
M  V30 26 1 9 24
M  V30 27 1 12 25
M  V30 28 1 13 26
M  V30 29 1 15 27
M  V30 30 1 16 28
M  V30 31 1 17 29
M  V30 32 1 18 30
M  V30 END BOND
M  V30 END CTAB
M  END

$$$$
