
     RDKit          3D

  0  0  0  0  0  0  0  0  0  0999 V3000
M  V30 BEGIN CTAB
M  V30 COUNTS 30 32 0 0 0
M  V30 BEGIN ATOM
M  V30 1 H 1.1912 -6.3815 2.5781 0
M  V30 2 H 0.0771 -9.0235 7.7273 0
M  V30 3 H 1.1675 -0.8959 8.0311 0
M  V30 4 H 0.1042 -5.9425 10.7208 0
M  V30 5 H -0.9955 -4.1779 10.8828 0
M  V30 6 C 0.6899 -6.6618 4.6183 0
M  V30 7 C 0.0967 -5.3058 8.6786 0
M  V30 8 C -0.4963 -3.4724 10.2103 0
M  V30 9 C 0.6835 -7.0492 3.2919 0
M  V30 10 C 0.0732 -7.4506 5.5663 0
M  V30 11 C 0.0885 -5.7047 7.3407 0
M  V30 12 C 0.1049 -3.9061 9.0483 0
M  V30 13 C 0.0978 -6.2591 9.6765 0
M  V30 14 C 0.0814 -7.0389 6.9679 0
M  V30 15 C 0.7138 -2.9685 8.2496 0
M  V30 16 C -0.5343 -8.6133 5.1401 0
M  V30 17 H 0.0877 -4.9685 6.5664 0
M  V30 18 H 0.0916 -8.3416 10.1072 0
M  V30 19 H 1.2128 -3.2283 7.3125 0
M  V30 20 H -0.9916 -1.8324 11.5206 0
M  V30 21 H 1.1645 -5.7492 4.9612 0
M  V30 22 H -1.0291 -9.2673 5.8277 0
M  V30 23 H -0.9847 -9.8712 3.4291 0
M  V30 24 C 0.0827 -7.9678 7.9866 0
M  V30 25 C 0.6870 -1.6539 8.6571 0
M  V30 26 C -0.5163 -8.9613 3.8056 0
M  V30 27 C 0.0907 -7.5947 9.3291 0
M  V30 28 N 0.0903 -1.2635 9.7994 0
M  V30 29 N 0.0903 -8.1837 2.8792 0
M  V30 30 C -0.5100 -2.1667 10.5926 0
M  V30 END ATOM
M  V30 BEGIN BOND
M  V30 1 2 26 29
M  V30 2 1 29 9
M  V30 3 2 9 6
M  V30 4 1 6 10
M  V30 5 1 10 14
M  V30 6 2 14 24
M  V30 7 1 24 27
M  V30 8 2 27 13
M  V30 9 1 13 7
M  V30 10 1 7 12
M  V30 11 2 12 15
M  V30 12 1 15 25
M  V30 13 2 25 28
M  V30 14 1 28 30
M  V30 15 2 30 8
M  V30 16 2 7 11
M  V30 17 2 10 16
M  V30 18 1 16 26
M  V30 19 1 11 14
M  V30 20 1 8 12
M  V30 21 1 26 23
M  V30 22 1 9 1
M  V30 23 1 6 21
M  V30 24 1 24 2
M  V30 25 1 27 18
M  V30 26 1 13 4
M  V30 27 1 15 19
M  V30 28 1 25 3
M  V30 29 1 30 20
M  V30 30 1 8 5
M  V30 31 1 11 17
M  V30 32 1 16 22
M  V30 END BOND
M  V30 END CTAB
M  END

$$$$
