
     RDKit          3D

  0  0  0  0  0  0  0  0  0  0999 V3000
M  V30 BEGIN CTAB
M  V30 COUNTS 30 32 0 0 0
M  V30 BEGIN ATOM
M  V30 1 C -9.1827 0.5562 2.7000 0
M  V30 2 N -8.4051 -0.0504 1.7737 0
M  V30 3 C -7.2706 -0.6436 2.1863 0
M  V30 4 C -6.8833 -0.6500 3.5128 0
M  V30 5 C -7.6720 -0.0333 4.4607 0
M  V30 6 C -7.2603 -0.0415 5.8624 0
M  V30 7 C -8.1893 -0.0427 6.8810 0
M  V30 8 C -7.8161 -0.0508 8.2236 0
M  V30 9 C -6.4805 -0.0579 8.5710 0
M  V30 10 C -5.5272 -0.0568 7.5730 0
M  V30 11 C -4.1275 -0.0650 7.9427 0
M  V30 12 C -3.1899 -0.6739 7.1441 0
M  V30 13 C -1.8754 -0.6471 7.5516 0
M  V30 14 N -1.4850 -0.0504 8.6938 0
M  V30 15 C -2.3882 0.5499 9.4870 0
M  V30 16 C -3.6939 0.5362 9.1047 0
M  V30 17 C -5.9261 -0.0486 6.2352 0
M  V30 18 C -8.8348 0.5742 4.0346 0
M  V30 19 H -10.0927 1.0246 2.3236 0
M  V30 20 H -6.6029 -1.1513 1.4725 0
M  V30 21 H -5.9706 -1.1246 3.8557 0
M  V30 22 H -9.2450 -0.0372 6.6217 0
M  V30 23 H -8.5630 -0.0517 9.0017 0
M  V30 24 H -6.1640 -0.0643 9.6152 0
M  V30 25 H -3.4497 -1.1729 6.2069 0
M  V30 26 H -1.1173 -1.1276 6.9256 0
M  V30 27 H -2.0538 1.0315 10.4150 0
M  V30 28 H -4.3993 1.0354 9.7772 0
M  V30 29 H -5.1899 -0.0478 5.4609 0
M  V30 30 H -9.4887 1.0691 4.7221 0
M  V30 END ATOM
M  V30 BEGIN BOND
M  V30 1 2 1 2
M  V30 2 1 2 3
M  V30 3 2 3 4
M  V30 4 1 4 5
M  V30 5 1 5 6
M  V30 6 2 6 7
M  V30 7 1 7 8
M  V30 8 2 8 9
M  V30 9 1 9 10
M  V30 10 1 10 11
M  V30 11 2 11 12
M  V30 12 1 12 13
M  V30 13 2 13 14
M  V30 14 1 14 15
M  V30 15 2 15 16
M  V30 16 2 10 17
M  V30 17 2 5 18
M  V30 18 1 18 1
M  V30 19 1 17 6
M  V30 20 1 16 11
M  V30 21 1 1 19
M  V30 22 1 3 20
M  V30 23 1 4 21
M  V30 24 1 7 22
M  V30 25 1 8 23
M  V30 26 1 9 24
M  V30 27 1 12 25
M  V30 28 1 13 26
M  V30 29 1 15 27
M  V30 30 1 16 28
M  V30 31 1 17 29
M  V30 32 1 18 30
M  V30 END BOND
M  V30 END CTAB
M  END

$$$$
