
     RDKit          3D

  0  0  0  0  0  0  0  0  0  0999 V3000
M  V30 BEGIN CTAB
M  V30 COUNTS 30 32 0 0 0
M  V30 BEGIN ATOM
M  V30 1 C -8.5258 0.1247 7.1731 0
M  V30 2 H -2.3903 1.1990 10.7071 0
M  V30 3 C -6.2626 0.1188 6.5273 0
M  V30 4 H -10.4292 1.1920 2.6157 0
M  V30 5 C -2.7247 0.7173 9.7791 0
M  V30 6 N -8.7416 0.1170 2.0658 0
M  V30 7 H -6.9394 -0.9839 1.7646 0
M  V30 8 H -9.5815 0.1302 6.9138 0
M  V30 9 H -6.5005 0.1031 9.9073 0
M  V30 10 H -4.7358 1.2028 10.0693 0
M  V30 11 C -9.5192 0.7236 2.9921 0
M  V30 12 C -7.6071 -0.4762 2.4784 0
M  V30 13 C -6.8170 0.1095 8.8631 0
M  V30 14 C -7.2198 -0.4826 3.8049 0
M  V30 15 C -5.8637 0.1106 7.8651 0
M  V30 16 H -5.5264 0.1196 5.7530 0
M  V30 17 H -3.7862 -1.0055 6.4990 0
M  V30 18 C -9.1713 0.7416 4.3267 0
M  V30 19 C -4.0304 0.7036 9.3968 0
M  V30 20 N -1.8215 0.1170 8.9859 0
M  V30 21 C -4.4640 0.1024 8.2348 0
M  V30 22 C -8.1526 0.1166 8.5157 0
M  V30 23 C -8.0085 0.1341 4.7528 0
M  V30 24 H -9.8252 1.2365 5.0142 0
M  V30 25 H -8.8995 0.1158 9.2938 0
M  V30 26 H -1.4538 -0.9602 7.2177 0
M  V30 27 H -6.3071 -0.9571 4.1477 0
M  V30 28 C -3.5264 -0.5064 7.4362 0
M  V30 29 C -7.5968 0.1260 6.1544 0
M  V30 30 C -2.2119 -0.4797 7.8437 0
M  V30 END ATOM
M  V30 BEGIN BOND
M  V30 1 2 11 6
M  V30 2 1 6 12
M  V30 3 2 12 14
M  V30 4 1 14 23
M  V30 5 1 23 29
M  V30 6 2 29 1
M  V30 7 1 1 22
M  V30 8 2 22 13
M  V30 9 1 13 15
M  V30 10 1 15 21
M  V30 11 2 21 28
M  V30 12 1 28 30
M  V30 13 2 30 20
M  V30 14 1 20 5
M  V30 15 2 5 19
M  V30 16 2 15 3
M  V30 17 2 23 18
M  V30 18 1 18 11
M  V30 19 1 3 29
M  V30 20 1 19 21
M  V30 21 1 11 4
M  V30 22 1 12 7
M  V30 23 1 14 27
M  V30 24 1 1 8
M  V30 25 1 22 25
M  V30 26 1 13 9
M  V30 27 1 28 17
M  V30 28 1 30 26
M  V30 29 1 5 2
M  V30 30 1 19 10
M  V30 31 1 3 16
M  V30 32 1 18 24
M  V30 END BOND
M  V30 END CTAB
M  END

$$$$
