
     RDKit          3D

  0  0  0  0  0  0  0  0  0  0999 V3000
M  V30 BEGIN CTAB
M  V30 COUNTS 30 32 0 0 0
M  V30 BEGIN ATOM
M  V30 1 C 5.9340 -7.3290 0.3711 0
M  V30 2 C 4.1007 -8.8607 -0.2219 0
M  V30 3 C 8.0788 -4.2167 0.3476 0
M  V30 4 C 4.5343 -7.6987 0.3793 0
M  V30 5 C 7.2901 -3.2687 0.9643 0
M  V30 6 H 10.4995 -2.0796 -0.7103 0
M  V30 7 H 3.8565 -5.9629 1.4872 0
M  V30 8 H 7.0097 -1.2285 1.4656 0
M  V30 9 H 1.5241 -6.6816 1.4419 0
M  V30 10 C 7.6671 -5.6183 0.3557 0
M  V30 11 C 3.5967 -6.9001 0.9881 0
M  V30 12 C 7.6774 -1.9423 0.9579 0
M  V30 13 H 2.4606 -10.1710 -0.7173 0
M  V30 14 C 8.5961 -6.6370 0.3570 0
M  V30 15 C 2.2822 -7.3076 0.9614 0
M  V30 16 H 6.3774 -3.6116 1.4388 0
M  V30 17 H 6.5708 -9.3712 0.3786 0
M  V30 18 N 8.8119 -1.5296 0.3647 0
M  V30 19 C 8.2229 -7.9796 0.3651 0
M  V30 20 N 1.8918 -8.4498 0.3647 0
M  V30 21 H 9.8955 -4.4781 -0.7548 0
M  V30 22 H 4.8061 -9.5332 -0.7211 0
M  V30 23 H 9.6518 -6.3777 0.3515 0
M  V30 24 C 9.5895 -2.4560 -0.2419 0
M  V30 25 C 6.3329 -5.9912 0.3629 0
M  V30 26 H 5.5967 -5.2168 0.3621 0
M  V30 27 C 6.8873 -8.3270 0.3722 0
M  V30 28 H 8.9698 -8.7577 0.3659 0
M  V30 29 C 2.7950 -9.2430 -0.2356 0
M  V30 30 C 9.2416 -3.7906 -0.2599 0
M  V30 END ATOM
M  V30 BEGIN BOND
M  V30 1 2 24 18
M  V30 2 1 18 12
M  V30 3 2 12 5
M  V30 4 1 5 3
M  V30 5 1 3 10
M  V30 6 2 10 14
M  V30 7 1 14 19
M  V30 8 2 19 27
M  V30 9 1 27 1
M  V30 10 1 1 4
M  V30 11 2 4 11
M  V30 12 1 11 15
M  V30 13 2 15 20
M  V30 14 1 20 29
M  V30 15 2 29 2
M  V30 16 2 1 25
M  V30 17 2 3 30
M  V30 18 1 30 24
M  V30 19 1 25 10
M  V30 20 1 2 4
M  V30 21 1 24 6
M  V30 22 1 12 8
M  V30 23 1 5 16
M  V30 24 1 14 23
M  V30 25 1 19 28
M  V30 26 1 27 17
M  V30 27 1 11 7
M  V30 28 1 15 9
M  V30 29 1 29 13
M  V30 30 1 2 22
M  V30 31 1 25 26
M  V30 32 1 30 21
M  V30 END BOND
M  V30 END CTAB
M  END

$$$$
