
     RDKit          3D

  0  0  0  0  0  0  0  0  0  0999 V3000
M  V30 BEGIN CTAB
M  V30 COUNTS 30 32 0 0 0
M  V30 BEGIN ATOM
M  V30 1 C 9.6329 -0.1600 3.5201 0
M  V30 2 N 8.8553 0.4466 2.5937 0
M  V30 3 C 7.7208 1.0398 3.0063 0
M  V30 4 C 7.3334 1.0462 4.3328 0
M  V30 5 C 8.1222 0.4295 5.2807 0
M  V30 6 C 7.7105 0.4376 6.6824 0
M  V30 7 C 8.6394 0.4389 7.7011 0
M  V30 8 C 8.2663 0.4470 9.0436 0
M  V30 9 C 6.9307 0.4541 9.3910 0
M  V30 10 C 5.9774 0.4530 8.3930 0
M  V30 11 C 4.5777 0.4612 8.7627 0
M  V30 12 C 3.6401 1.0701 7.9641 0
M  V30 13 C 2.3255 1.0433 8.3716 0
M  V30 14 N 1.9351 0.4466 9.5139 0
M  V30 15 C 2.8383 -0.1537 10.3070 0
M  V30 16 C 4.1441 -0.1400 9.9248 0
M  V30 17 C 6.3763 0.4448 7.0552 0
M  V30 18 C 9.2850 -0.1780 4.8546 0
M  V30 19 H 10.5428 -0.6284 3.1436 0
M  V30 20 H 7.0531 1.5475 2.2925 0
M  V30 21 H 6.4208 1.5207 4.6757 0
M  V30 22 H 9.6951 0.4334 7.4418 0
M  V30 23 H 9.0132 0.4478 9.8217 0
M  V30 24 H 6.6141 0.4605 10.4353 0
M  V30 25 H 3.8999 1.5691 7.0270 0
M  V30 26 H 1.5675 1.5238 7.7456 0
M  V30 27 H 2.5040 -0.6354 11.2351 0
M  V30 28 H 4.8495 -0.6392 10.5973 0
M  V30 29 H 5.6401 0.4440 6.2809 0
M  V30 30 H 9.9389 -0.6729 5.5421 0
M  V30 END ATOM
M  V30 BEGIN BOND
M  V30 1 2 1 2
M  V30 2 1 2 3
M  V30 3 2 3 4
M  V30 4 1 4 5
M  V30 5 1 5 6
M  V30 6 2 6 7
M  V30 7 1 7 8
M  V30 8 2 8 9
M  V30 9 1 9 10
M  V30 10 1 10 11
M  V30 11 2 11 12
M  V30 12 1 12 13
M  V30 13 2 13 14
M  V30 14 1 14 15
M  V30 15 2 15 16
M  V30 16 2 10 17
M  V30 17 2 5 18
M  V30 18 1 18 1
M  V30 19 1 17 6
M  V30 20 1 16 11
M  V30 21 1 1 19
M  V30 22 1 3 20
M  V30 23 1 4 21
M  V30 24 1 7 22
M  V30 25 1 8 23
M  V30 26 1 9 24
M  V30 27 1 12 25
M  V30 28 1 13 26
M  V30 29 1 15 27
M  V30 30 1 16 28
M  V30 31 1 17 29
M  V30 32 1 18 30
M  V30 END BOND
M  V30 END CTAB
M  END

$$$$
