
     RDKit          3D

  0  0  0  0  0  0  0  0  0  0999 V3000
M  V30 BEGIN CTAB
M  V30 COUNTS 30 32 0 0 0
M  V30 BEGIN ATOM
M  V30 1 H -9.1260 0.2064 -9.2128 0
M  V30 2 C -4.2569 -0.3815 -9.3158 0
M  V30 3 H -6.7270 0.2191 -9.8263 0
M  V30 4 C -3.7529 0.8286 -7.3552 0
M  V30 5 C -7.0435 0.2126 -8.7821 0
M  V30 6 H -5.7529 0.2025 -5.6719 0
M  V30 7 H -9.8080 0.1920 -6.8328 0
M  V30 8 C -9.7457 -0.4015 -2.9111 0
M  V30 9 H -10.6557 -0.8699 -2.5347 0
M  V30 10 H -4.9624 -0.8807 -9.9883 0
M  V30 11 C -6.4891 0.2033 -6.4463 0
M  V30 12 C -2.4384 0.8018 -7.7627 0
M  V30 13 H -7.1659 1.3060 -1.6836 0
M  V30 14 C -7.8233 0.1962 -6.0734 0
M  V30 15 C -6.0902 0.2116 -7.7841 0
M  V30 16 N -2.0480 0.2051 -8.9049 0
M  V30 17 H -4.0127 1.3276 -6.4180 0
M  V30 18 C -7.4463 0.8048 -3.7238 0
M  V30 19 C -9.3978 -0.4194 -4.2457 0
M  V30 20 H -10.0517 -0.9143 -4.9332 0
M  V30 21 C -7.8336 0.7984 -2.3974 0
M  V30 22 C -8.7523 0.1975 -7.0921 0
M  V30 23 H -2.6168 -0.8768 -10.6261 0
M  V30 24 N -8.9682 0.2051 -1.9847 0
M  V30 25 C -4.6905 0.2198 -8.1538 0
M  V30 26 C -2.9512 -0.3952 -9.6981 0
M  V30 27 H -1.6803 1.2823 -7.1367 0
M  V30 28 C -8.3791 0.2056 -8.4347 0
M  V30 29 C -8.2350 0.1880 -4.6718 0
M  V30 30 H -6.5336 1.2793 -4.0667 0
M  V30 END ATOM
M  V30 BEGIN BOND
M  V30 1 2 8 24
M  V30 2 1 24 21
M  V30 3 2 21 18
M  V30 4 1 18 29
M  V30 5 1 29 14
M  V30 6 2 14 22
M  V30 7 1 22 28
M  V30 8 2 28 5
M  V30 9 1 5 15
M  V30 10 1 15 25
M  V30 11 2 25 4
M  V30 12 1 4 12
M  V30 13 2 12 16
M  V30 14 1 16 26
M  V30 15 2 26 2
M  V30 16 2 15 11
M  V30 17 2 29 19
M  V30 18 1 19 8
M  V30 19 1 11 14
M  V30 20 1 2 25
M  V30 21 1 8 9
M  V30 22 1 21 13
M  V30 23 1 18 30
M  V30 24 1 22 7
M  V30 25 1 28 1
M  V30 26 1 5 3
M  V30 27 1 4 17
M  V30 28 1 12 27
M  V30 29 1 26 23
M  V30 30 1 2 10
M  V30 31 1 11 6
M  V30 32 1 19 20
M  V30 END BOND
M  V30 END CTAB
M  END

$$$$
