
     RDKit          3D

  0  0  0  0  0  0  0  0  0  0999 V3000
M  V30 BEGIN CTAB
M  V30 COUNTS 366 408 0 0 0
M  V30 BEGIN ATOM
M  V30 1 Pd 8.9279 0.4153 0.4967 0 CHG=2
M  V30 2 Pd 0.0345 9.5050 0.5040 0 CHG=2
M  V30 3 Pd -8.8697 0.3103 0.0534 0 CHG=2
M  V30 4 Pd -0.0527 -8.3868 0.5245 0 CHG=2
M  V30 5 Pd -0.0159 0.6662 9.6395 0 CHG=2
M  V30 6 Pd -0.2065 0.9246 -8.5649 0 CHG=2
M  V30 7 C 9.8100 3.0525 1.0976 0
M  V30 8 N 9.0324 2.1261 0.4909 0
M  V30 9 C 7.8979 2.5388 -0.1023 0
M  V30 10 C 7.5105 3.8652 -0.1087 0
M  V30 11 C 8.2993 4.8132 0.5080 0
M  V30 12 C 7.8876 6.2148 0.4999 0
M  V30 13 C 8.8165 7.2335 0.4986 0
M  V30 14 C 8.4434 8.5760 0.4905 0
M  V30 15 C 7.1078 8.9234 0.4834 0
M  V30 16 C 6.1545 7.9255 0.4845 0
M  V30 17 C 4.7548 8.2952 0.4763 0
M  V30 18 C 3.8172 7.4965 -0.1325 0
M  V30 19 C 2.5027 7.9040 -0.1057 0
M  V30 20 N 2.1122 9.0463 0.4909 0
M  V30 21 C 3.0154 9.8395 1.0912 0
M  V30 22 C 4.3212 9.4572 1.0776 0
M  V30 23 C 6.5534 6.5876 0.4927 0
M  V30 24 C 9.4621 4.3870 1.1155 0
M  V30 25 H 10.7199 2.6760 1.5660 0
M  V30 26 H 7.2302 1.8250 -0.6099 0
M  V30 27 H 6.5979 4.2081 -0.5832 0
M  V30 28 H 9.8722 6.9742 0.5041 0
M  V30 29 H 9.1903 9.3541 0.4897 0
M  V30 30 H 6.7912 9.9677 0.4770 0
M  V30 31 H 4.0770 6.5594 -0.6316 0
M  V30 32 H 1.7446 7.2780 -0.5862 0
M  V30 33 H 2.6811 10.7675 1.5729 0
M  V30 34 H 5.0266 10.1297 1.5767 0
M  V30 35 H 5.8172 5.8133 0.4936 0
M  V30 36 H 10.1160 5.0746 1.6104 0
M  V30 37 C 9.5895 -2.4560 -0.2419 0
M  V30 38 N 8.8119 -1.5296 0.3647 0
M  V30 39 C 7.6774 -1.9423 0.9579 0
M  V30 40 C 7.2901 -3.2687 0.9643 0
M  V30 41 C 8.0788 -4.2167 0.3476 0
M  V30 42 C 7.6671 -5.6183 0.3557 0
M  V30 43 C 8.5961 -6.6370 0.3570 0
M  V30 44 C 8.2229 -7.9796 0.3651 0
M  V30 45 C 6.8873 -8.3270 0.3722 0
M  V30 46 C 5.9340 -7.3290 0.3711 0
M  V30 47 C 4.5343 -7.6987 0.3793 0
M  V30 48 C 3.5967 -6.9001 0.9881 0
M  V30 49 C 2.2822 -7.3076 0.9614 0
M  V30 50 N 1.8918 -8.4498 0.3647 0
M  V30 51 C 2.7950 -9.2430 -0.2356 0
M  V30 52 C 4.1007 -8.8607 -0.2219 0
M  V30 53 C 6.3329 -5.9912 0.3629 0
M  V30 54 C 9.2416 -3.7906 -0.2599 0
M  V30 55 H 10.4995 -2.0796 -0.7103 0
M  V30 56 H 7.0097 -1.2285 1.4656 0
M  V30 57 H 6.3774 -3.6116 1.4388 0
M  V30 58 H 9.6518 -6.3777 0.3515 0
M  V30 59 H 8.9698 -8.7577 0.3659 0
M  V30 60 H 6.5708 -9.3712 0.3786 0
M  V30 61 H 3.8565 -5.9629 1.4872 0
M  V30 62 H 1.5241 -6.6816 1.4419 0
M  V30 63 H 2.4606 -10.1710 -0.7173 0
M  V30 64 H 4.8061 -9.5332 -0.7211 0
M  V30 65 H 5.5967 -5.2168 0.3621 0
M  V30 66 H 9.8955 -4.4781 -0.7548 0
M  V30 67 C 9.6329 -0.1600 3.5201 0
M  V30 68 N 8.8553 0.4466 2.5937 0
M  V30 69 C 7.7208 1.0398 3.0063 0
M  V30 70 C 7.3334 1.0462 4.3328 0
M  V30 71 C 8.1222 0.4295 5.2807 0
M  V30 72 C 7.7105 0.4376 6.6824 0
M  V30 73 C 8.6394 0.4389 7.7011 0
M  V30 74 C 8.2663 0.4470 9.0436 0
M  V30 75 C 6.9307 0.4541 9.3910 0
M  V30 76 C 5.9774 0.4530 8.3930 0
M  V30 77 C 4.5777 0.4612 8.7627 0
M  V30 78 C 3.6401 1.0701 7.9641 0
M  V30 79 C 2.3255 1.0433 8.3716 0
M  V30 80 N 1.9351 0.4466 9.5139 0
M  V30 81 C 2.8383 -0.1537 10.3070 0
M  V30 82 C 4.1441 -0.1400 9.9248 0
M  V30 83 C 6.3763 0.4448 7.0552 0
M  V30 84 C 9.2850 -0.1780 4.8546 0
M  V30 85 H 10.5428 -0.6284 3.1436 0
M  V30 86 H 7.0531 1.5475 2.2925 0
M  V30 87 H 6.4208 1.5207 4.6757 0
M  V30 88 H 9.6951 0.4334 7.4418 0
M  V30 89 H 9.0132 0.4478 9.8217 0
M  V30 90 H 6.6141 0.4605 10.4353 0
M  V30 91 H 3.8999 1.5691 7.0270 0
M  V30 92 H 1.5675 1.5238 7.7456 0
M  V30 93 H 2.5040 -0.6354 11.2351 0
M  V30 94 H 4.8495 -0.6392 10.5973 0
M  V30 95 H 5.6401 0.4440 6.2809 0
M  V30 96 H 9.9389 -0.6729 5.5421 0
M  V30 97 C 9.2583 0.9501 -2.4439 0
M  V30 98 N 8.4807 0.3435 -1.5176 0
M  V30 99 C 7.3461 -0.2498 -1.9302 0
M  V30 100 C 6.9588 -0.2562 -3.2567 0
M  V30 101 C 7.7475 0.3606 -4.2046 0
M  V30 102 C 7.3358 0.3524 -5.6063 0
M  V30 103 C 8.2648 0.3511 -6.6250 0
M  V30 104 C 7.8916 0.3430 -7.9675 0
M  V30 105 C 6.5561 0.3359 -8.3149 0
M  V30 106 C 5.6027 0.3370 -7.3169 0
M  V30 107 C 4.2030 0.3288 -7.6866 0
M  V30 108 C 3.2654 -0.2800 -6.8880 0
M  V30 109 C 1.9509 -0.2532 -7.2955 0
M  V30 110 N 1.5605 0.3435 -8.4378 0
M  V30 111 C 2.4637 0.9437 -9.2309 0
M  V30 112 C 3.7694 0.9301 -8.8486 0
M  V30 113 C 6.0016 0.3453 -5.9791 0
M  V30 114 C 8.9103 0.9680 -3.7785 0
M  V30 115 H 10.1682 1.4185 -2.0675 0
M  V30 116 H 6.6784 -0.7574 -1.2164 0
M  V30 117 H 6.0461 -0.7307 -3.5996 0
M  V30 118 H 9.3205 0.3566 -6.3657 0
M  V30 119 H 8.6385 0.3422 -8.7456 0
M  V30 120 H 6.2395 0.3295 -9.3591 0
M  V30 121 H 3.5252 -0.7790 -5.9509 0
M  V30 122 H 1.1929 -0.7337 -6.6695 0
M  V30 123 H 2.1294 1.4254 -10.1590 0
M  V30 124 H 4.4749 1.4292 -9.5211 0
M  V30 125 H 5.2655 0.3461 -5.2048 0
M  V30 126 H 9.5643 1.4629 -4.4660 0
M  V30 127 C -2.9043 10.1524 1.2116 0
M  V30 128 N -1.9779 9.3749 0.6050 0
M  V30 129 C -2.3906 8.2403 0.0118 0
M  V30 130 C -3.7170 7.8530 0.0054 0
M  V30 131 C -4.6650 8.6417 0.6221 0
M  V30 132 C -6.0666 8.2300 0.6140 0
M  V30 133 C -7.0853 9.1590 0.6127 0
M  V30 134 C -8.4278 8.7858 0.6046 0
M  V30 135 C -8.7752 7.4502 0.5975 0
M  V30 136 C -7.7773 6.4969 0.5986 0
M  V30 137 C -8.1470 5.0972 0.5904 0
M  V30 138 C -7.3483 4.1596 -0.0184 0
M  V30 139 C -7.7558 2.8451 0.0084 0
M  V30 140 N -8.8981 2.4547 0.6050 0
M  V30 141 C -9.6913 3.3579 1.2053 0
M  V30 142 C -9.3090 4.6636 1.1917 0
M  V30 143 C -6.4394 6.8958 0.6068 0
M  V30 144 C -4.2388 9.8045 1.2296 0
M  V30 145 H -2.5278 11.0624 1.6801 0
M  V30 146 H -1.6768 7.5726 -0.4958 0
M  V30 147 H -4.0599 6.9403 -0.4691 0
M  V30 148 H -6.8260 10.2147 0.6182 0
M  V30 149 H -9.2059 9.5327 0.6038 0
M  V30 150 H -9.8195 7.1337 0.5911 0
M  V30 151 H -6.4112 4.4194 -0.5175 0
M  V30 152 H -7.1298 2.0870 -0.4721 0
M  V30 153 H -10.6193 3.0235 1.6870 0
M  V30 154 H -9.9815 5.3691 1.6908 0
M  V30 155 H -5.6651 6.1596 0.6077 0
M  V30 156 H -4.9264 10.4584 1.7245 0
M  V30 157 C -9.7426 -2.8568 0.6901 0
M  V30 158 N -8.9650 -1.9305 0.0835 0
M  V30 159 C -7.8305 -2.3431 -0.5097 0
M  V30 160 C -7.4431 -3.6696 -0.5161 0
M  V30 161 C -8.2319 -4.6175 0.1006 0
M  V30 162 C -7.8202 -6.0192 0.0924 0
M  V30 163 C -8.7491 -7.0379 0.0911 0
M  V30 164 C -8.3760 -8.3804 0.0831 0
M  V30 165 C -7.0404 -8.7278 0.0760 0
M  V30 166 C -6.0871 -7.7298 0.0771 0
M  V30 167 C -4.6874 -8.0995 0.0689 0
M  V30 168 C -3.7498 -7.3009 -0.5400 0
M  V30 169 C -2.4352 -7.7084 -0.5132 0
M  V30 170 N -2.0448 -8.8507 0.0835 0
M  V30 171 C -2.9480 -9.6438 0.6838 0
M  V30 172 C -4.2537 -9.2615 0.6701 0
M  V30 173 C -6.4860 -6.3920 0.0853 0
M  V30 174 C -9.3946 -4.1914 0.7081 0
M  V30 175 H -10.6525 -2.4804 1.1585 0
M  V30 176 H -7.1628 -1.6293 -1.0174 0
M  V30 177 H -6.5305 -4.0125 -0.9907 0
M  V30 178 H -9.8048 -6.7786 0.0967 0
M  V30 179 H -9.1229 -9.1585 0.0822 0
M  V30 180 H -6.7238 -9.7720 0.0696 0
M  V30 181 H -4.0096 -6.3638 -1.0390 0
M  V30 182 H -1.6772 -7.0824 -0.9937 0
M  V30 183 H -2.6137 -10.5719 1.1654 0
M  V30 184 H -4.9592 -9.9340 1.1693 0
M  V30 185 H -5.7498 -5.6177 0.0861 0
M  V30 186 H -10.0486 -4.8789 1.2029 0
M  V30 187 C -9.5192 0.7236 2.9921 0
M  V30 188 N -8.7416 0.1170 2.0658 0
M  V30 189 C -7.6071 -0.4762 2.4784 0
M  V30 190 C -7.2198 -0.4826 3.8049 0
M  V30 191 C -8.0085 0.1341 4.7528 0
M  V30 192 C -7.5968 0.1260 6.1544 0
M  V30 193 C -8.5258 0.1247 7.1731 0
M  V30 194 C -8.1526 0.1166 8.5157 0
M  V30 195 C -6.8170 0.1095 8.8631 0
M  V30 196 C -5.8637 0.1106 7.8651 0
M  V30 197 C -4.4640 0.1024 8.2348 0
M  V30 198 C -3.5264 -0.5064 7.4362 0
M  V30 199 C -2.2119 -0.4797 7.8437 0
M  V30 200 N -1.8215 0.1170 8.9859 0
M  V30 201 C -2.7247 0.7173 9.7791 0
M  V30 202 C -4.0304 0.7036 9.3968 0
M  V30 203 C -6.2626 0.1188 6.5273 0
M  V30 204 C -9.1713 0.7416 4.3267 0
M  V30 205 H -10.4292 1.1920 2.6157 0
M  V30 206 H -6.9394 -0.9839 1.7646 0
M  V30 207 H -6.3071 -0.9571 4.1477 0
M  V30 208 H -9.5815 0.1302 6.9138 0
M  V30 209 H -8.8995 0.1158 9.2938 0
M  V30 210 H -6.5005 0.1031 9.9073 0
M  V30 211 H -3.7862 -1.0055 6.4990 0
M  V30 212 H -1.4538 -0.9602 7.2177 0
M  V30 213 H -2.3903 1.1990 10.7071 0
M  V30 214 H -4.7358 1.2028 10.0693 0
M  V30 215 H -5.5264 0.1196 5.7530 0
M  V30 216 H -9.8252 1.2365 5.0142 0
M  V30 217 C -9.7457 -0.4015 -2.9111 0
M  V30 218 N -8.9682 0.2051 -1.9847 0
M  V30 219 C -7.8336 0.7984 -2.3974 0
M  V30 220 C -7.4463 0.8048 -3.7238 0
M  V30 221 C -8.2350 0.1880 -4.6718 0
M  V30 222 C -7.8233 0.1962 -6.0734 0
M  V30 223 C -8.7523 0.1975 -7.0921 0
M  V30 224 C -8.3791 0.2056 -8.4347 0
M  V30 225 C -7.0435 0.2126 -8.7821 0
M  V30 226 C -6.0902 0.2116 -7.7841 0
M  V30 227 C -4.6905 0.2198 -8.1538 0
M  V30 228 C -3.7529 0.8286 -7.3552 0
M  V30 229 C -2.4384 0.8018 -7.7627 0
M  V30 230 N -2.0480 0.2051 -8.9049 0
M  V30 231 C -2.9512 -0.3952 -9.6981 0
M  V30 232 C -4.2569 -0.3815 -9.3158 0
M  V30 233 C -6.4891 0.2033 -6.4463 0
M  V30 234 C -9.3978 -0.4194 -4.2457 0
M  V30 235 H -10.6557 -0.8699 -2.5347 0
M  V30 236 H -7.1659 1.3060 -1.6836 0
M  V30 237 H -6.5336 1.2793 -4.0667 0
M  V30 238 H -9.8080 0.1920 -6.8328 0
M  V30 239 H -9.1260 0.2064 -9.2128 0
M  V30 240 H -6.7270 0.2191 -9.8263 0
M  V30 241 H -4.0127 1.3276 -6.4180 0
M  V30 242 H -1.6803 1.2823 -7.1367 0
M  V30 243 H -2.6168 -0.8768 -10.6261 0
M  V30 244 H -4.9624 -0.8807 -9.9883 0
M  V30 245 H -5.7529 0.2025 -5.6719 0
M  V30 246 H -10.0517 -0.9143 -4.9332 0
M  V30 247 C 0.6415 10.3447 3.6011 0
M  V30 248 N 0.0349 9.5671 2.6747 0
M  V30 249 C -0.5583 8.4326 3.0874 0
M  V30 250 C -0.5647 8.0453 4.4138 0
M  V30 251 C 0.0520 8.8340 5.3618 0
M  V30 252 C 0.0439 8.4223 6.7634 0
M  V30 253 C 0.0426 9.3512 7.7821 0
M  V30 254 C 0.0345 8.9781 9.1246 0
M  V30 255 C 0.0274 7.6425 9.4720 0
M  V30 256 C 0.0285 6.6892 8.4741 0
M  V30 257 C 0.0203 5.2895 8.8438 0
M  V30 258 C -0.5886 4.3519 8.0451 0
M  V30 259 C -0.5618 3.0374 8.4526 0
M  V30 260 N 0.0349 2.6470 9.5949 0
M  V30 261 C 0.6352 3.5501 10.3880 0
M  V30 262 C 0.6215 4.8559 10.0058 0
M  V30 263 C 0.0367 7.0881 7.1362 0
M  V30 264 C 0.6595 9.9968 4.9356 0
M  V30 265 H 1.1099 11.2547 3.2246 0
M  V30 266 H -1.0660 7.7649 2.3736 0
M  V30 267 H -1.0393 7.1326 4.7567 0
M  V30 268 H 0.0481 10.4070 7.5228 0
M  V30 269 H 0.0337 9.7250 9.9027 0
M  V30 270 H 0.0210 7.3260 10.5163 0
M  V30 271 H -1.0876 4.6117 7.1080 0
M  V30 272 H -1.0423 2.2793 7.8266 0
M  V30 273 H 1.1169 3.2158 11.3161 0
M  V30 274 H 1.1207 5.5613 10.6783 0
M  V30 275 H 0.0375 6.3519 6.3619 0
M  V30 276 H 1.1544 10.6507 5.6232 0
M  V30 277 C -0.7528 10.8412 -2.4677 0
M  V30 278 N -0.1462 10.0636 -1.5414 0
M  V30 279 C 0.4470 8.9290 -1.9540 0
M  V30 280 C 0.4534 8.5417 -3.2805 0
M  V30 281 C -0.1633 9.3305 -4.2284 0
M  V30 282 C -0.1552 8.9187 -5.6301 0
M  V30 283 C -0.1539 9.8477 -6.6488 0
M  V30 284 C -0.1458 9.4745 -7.9913 0
M  V30 285 C -0.1387 8.1390 -8.3387 0
M  V30 286 C -0.1398 7.1856 -7.3407 0
M  V30 287 C -0.1316 5.7859 -7.7104 0
M  V30 288 C 0.4772 4.8483 -6.9118 0
M  V30 289 C 0.4504 3.5338 -7.3193 0
M  V30 290 N -0.1462 3.1434 -8.4616 0
M  V30 291 C -0.7465 4.0466 -9.2547 0
M  V30 292 C -0.7329 5.3523 -8.8725 0
M  V30 293 C -0.1480 7.5845 -6.0029 0
M  V30 294 C -0.7708 10.4932 -3.8023 0
M  V30 295 H -1.2213 11.7511 -2.0913 0
M  V30 296 H 0.9546 8.2613 -1.2402 0
M  V30 297 H 0.9279 7.6291 -3.6234 0
M  V30 298 H -0.1594 10.9034 -6.3895 0
M  V30 299 H -0.1450 10.2214 -8.7694 0
M  V30 300 H -0.1323 7.8224 -9.3830 0
M  V30 301 H 0.9763 5.1082 -5.9747 0
M  V30 302 H 0.9310 2.7758 -6.6933 0
M  V30 303 H -1.2282 3.7123 -10.1828 0
M  V30 304 H -1.2320 6.0578 -9.5450 0
M  V30 305 H -0.1489 6.8484 -5.2286 0
M  V30 306 H -1.2657 11.1472 -4.4898 0
M  V30 307 C -0.5163 -8.9613 3.8056 0
M  V30 308 N 0.0903 -8.1837 2.8792 0
M  V30 309 C 0.6835 -7.0492 3.2919 0
M  V30 310 C 0.6899 -6.6618 4.6183 0
M  V30 311 C 0.0732 -7.4506 5.5663 0
M  V30 312 C 0.0814 -7.0389 6.9679 0
M  V30 313 C 0.0827 -7.9678 7.9866 0
M  V30 314 C 0.0907 -7.5947 9.3291 0
M  V30 315 C 0.0978 -6.2591 9.6765 0
M  V30 316 C 0.0967 -5.3058 8.6786 0
M  V30 317 C 0.1049 -3.9061 9.0483 0
M  V30 318 C 0.7138 -2.9685 8.2496 0
M  V30 319 C 0.6870 -1.6539 8.6571 0
M  V30 320 N 0.0903 -1.2635 9.7994 0
M  V30 321 C -0.5100 -2.1667 10.5926 0
M  V30 322 C -0.4963 -3.4724 10.2103 0
M  V30 323 C 0.0885 -5.7047 7.3407 0
M  V30 324 C -0.5343 -8.6133 5.1401 0
M  V30 325 H -0.9847 -9.8712 3.4291 0
M  V30 326 H 1.1912 -6.3815 2.5781 0
M  V30 327 H 1.1645 -5.7492 4.9612 0
M  V30 328 H 0.0771 -9.0235 7.7273 0
M  V30 329 H 0.0916 -8.3416 10.1072 0
M  V30 330 H 0.1042 -5.9425 10.7208 0
M  V30 331 H 1.2128 -3.2283 7.3125 0
M  V30 332 H 1.1675 -0.8959 8.0311 0
M  V30 333 H -0.9916 -1.8324 11.5206 0
M  V30 334 H -0.9955 -4.1779 10.8828 0
M  V30 335 H 0.0877 -4.9685 6.5664 0
M  V30 336 H -1.0291 -9.2673 5.8277 0
M  V30 337 C 0.5947 -8.6881 -2.5744 0
M  V30 338 N -0.0119 -7.9105 -1.6480 0
M  V30 339 C -0.6051 -6.7760 -2.0607 0
M  V30 340 C -0.6115 -6.3887 -3.3871 0
M  V30 341 C 0.0052 -7.1774 -4.3351 0
M  V30 342 C -0.0029 -6.7657 -5.7367 0
M  V30 343 C -0.0042 -7.6946 -6.7554 0
M  V30 344 C -0.0123 -7.3215 -8.0979 0
M  V30 345 C -0.0194 -5.9859 -8.4453 0
M  V30 346 C -0.0183 -5.0326 -7.4474 0
M  V30 347 C -0.0265 -3.6329 -7.8171 0
M  V30 348 C -0.6354 -2.6953 -7.0184 0
M  V30 349 C -0.6086 -1.3808 -7.4259 0
M  V30 350 N -0.0119 -0.9903 -8.5682 0
M  V30 351 C 0.5884 -1.8935 -9.3614 0
M  V30 352 C 0.5747 -3.1993 -8.9791 0
M  V30 353 C -0.0101 -5.4315 -6.1095 0
M  V30 354 C 0.6127 -8.3402 -3.9089 0
M  V30 355 H 1.0631 -9.5980 -2.1979 0
M  V30 356 H -1.1128 -6.1083 -1.3469 0
M  V30 357 H -1.0861 -5.4760 -3.7300 0
M  V30 358 H 0.0013 -8.7503 -6.4961 0
M  V30 359 H -0.0131 -8.0684 -8.8760 0
M  V30 360 H -0.0258 -5.6693 -9.4896 0
M  V30 361 H -1.1344 -2.9551 -6.0813 0
M  V30 362 H -1.0891 -0.6227 -6.7999 0
M  V30 363 H 1.0701 -1.5592 -10.2894 0
M  V30 364 H 1.0739 -3.9047 -9.6516 0
M  V30 365 H -0.0093 -4.6953 -5.3352 0
M  V30 366 H 1.1076 -8.9941 -4.5965 0
M  V30 END ATOM
M  V30 BEGIN BOND
M  V30 1 2 7 8
M  V30 2 1 8 9
M  V30 3 2 9 10
M  V30 4 1 10 11
M  V30 5 1 11 12
M  V30 6 2 12 13
M  V30 7 1 13 14
M  V30 8 2 14 15
M  V30 9 1 15 16
M  V30 10 1 16 17
M  V30 11 2 17 18
M  V30 12 1 18 19
M  V30 13 2 19 20
M  V30 14 1 20 21
M  V30 15 2 21 22
M  V30 16 2 16 23
M  V30 17 2 11 24
M  V30 18 1 24 7
M  V30 19 1 23 12
M  V30 20 1 22 17
M  V30 21 1 7 25
M  V30 22 1 9 26
M  V30 23 1 10 27
M  V30 24 1 13 28
M  V30 25 1 14 29
M  V30 26 1 15 30
M  V30 27 1 18 31
M  V30 28 1 19 32
M  V30 29 1 21 33
M  V30 30 1 22 34
M  V30 31 1 23 35
M  V30 32 1 24 36
M  V30 33 2 37 38
M  V30 34 1 38 39
M  V30 35 2 39 40
M  V30 36 1 40 41
M  V30 37 1 41 42
M  V30 38 2 42 43
M  V30 39 1 43 44
M  V30 40 2 44 45
M  V30 41 1 45 46
M  V30 42 1 46 47
M  V30 43 2 47 48
M  V30 44 1 48 49
M  V30 45 2 49 50
M  V30 46 1 50 51
M  V30 47 2 51 52
M  V30 48 2 46 53
M  V30 49 2 41 54
M  V30 50 1 54 37
M  V30 51 1 53 42
M  V30 52 1 52 47
M  V30 53 1 37 55
M  V30 54 1 39 56
M  V30 55 1 40 57
M  V30 56 1 43 58
M  V30 57 1 44 59
M  V30 58 1 45 60
M  V30 59 1 48 61
M  V30 60 1 49 62
M  V30 61 1 51 63
M  V30 62 1 52 64
M  V30 63 1 53 65
M  V30 64 1 54 66
M  V30 65 2 67 68
M  V30 66 1 68 69
M  V30 67 2 69 70
M  V30 68 1 70 71
M  V30 69 1 71 72
M  V30 70 2 72 73
M  V30 71 1 73 74
M  V30 72 2 74 75
M  V30 73 1 75 76
M  V30 74 1 76 77
M  V30 75 2 77 78
M  V30 76 1 78 79
M  V30 77 2 79 80
M  V30 78 1 80 81
M  V30 79 2 81 82
M  V30 80 2 76 83
M  V30 81 2 71 84
M  V30 82 1 84 67
M  V30 83 1 83 72
M  V30 84 1 82 77
M  V30 85 1 67 85
M  V30 86 1 69 86
M  V30 87 1 70 87
M  V30 88 1 73 88
M  V30 89 1 74 89
M  V30 90 1 75 90
M  V30 91 1 78 91
M  V30 92 1 79 92
M  V30 93 1 81 93
M  V30 94 1 82 94
M  V30 95 1 83 95
M  V30 96 1 84 96
M  V30 97 2 97 98
M  V30 98 1 98 99
M  V30 99 2 99 100
M  V30 100 1 100 101
M  V30 101 1 101 102
M  V30 102 2 102 103
M  V30 103 1 103 104
M  V30 104 2 104 105
M  V30 105 1 105 106
M  V30 106 1 106 107
M  V30 107 2 107 108
M  V30 108 1 108 109
M  V30 109 2 109 110
M  V30 110 1 110 111
M  V30 111 2 111 112
M  V30 112 2 106 113
M  V30 113 2 101 114
M  V30 114 1 114 97
M  V30 115 1 113 102
M  V30 116 1 112 107
M  V30 117 1 97 115
M  V30 118 1 99 116
M  V30 119 1 100 117
M  V30 120 1 103 118
M  V30 121 1 104 119
M  V30 122 1 105 120
M  V30 123 1 108 121
M  V30 124 1 109 122
M  V30 125 1 111 123
M  V30 126 1 112 124
M  V30 127 1 113 125
M  V30 128 1 114 126
M  V30 129 2 127 128
M  V30 130 1 128 129
M  V30 131 2 129 130
M  V30 132 1 130 131
M  V30 133 1 131 132
M  V30 134 2 132 133
M  V30 135 1 133 134
M  V30 136 2 134 135
M  V30 137 1 135 136
M  V30 138 1 136 137
M  V30 139 2 137 138
M  V30 140 1 138 139
M  V30 141 2 139 140
M  V30 142 1 140 141
M  V30 143 2 141 142
M  V30 144 2 136 143
M  V30 145 2 131 144
M  V30 146 1 144 127
M  V30 147 1 143 132
M  V30 148 1 142 137
M  V30 149 1 127 145
M  V30 150 1 129 146
M  V30 151 1 130 147
M  V30 152 1 133 148
M  V30 153 1 134 149
M  V30 154 1 135 150
M  V30 155 1 138 151
M  V30 156 1 139 152
M  V30 157 1 141 153
M  V30 158 1 142 154
M  V30 159 1 143 155
M  V30 160 1 144 156
M  V30 161 2 157 158
M  V30 162 1 158 159
M  V30 163 2 159 160
M  V30 164 1 160 161
M  V30 165 1 161 162
M  V30 166 2 162 163
M  V30 167 1 163 164
M  V30 168 2 164 165
M  V30 169 1 165 166
M  V30 170 1 166 167
M  V30 171 2 167 168
M  V30 172 1 168 169
M  V30 173 2 169 170
M  V30 174 1 170 171
M  V30 175 2 171 172
M  V30 176 2 166 173
M  V30 177 2 161 174
M  V30 178 1 174 157
M  V30 179 1 173 162
M  V30 180 1 172 167
M  V30 181 1 157 175
M  V30 182 1 159 176
M  V30 183 1 160 177
M  V30 184 1 163 178
M  V30 185 1 164 179
M  V30 186 1 165 180
M  V30 187 1 168 181
M  V30 188 1 169 182
M  V30 189 1 171 183
M  V30 190 1 172 184
M  V30 191 1 173 185
M  V30 192 1 174 186
M  V30 193 2 187 188
M  V30 194 1 188 189
M  V30 195 2 189 190
M  V30 196 1 190 191
M  V30 197 1 191 192
M  V30 198 2 192 193
M  V30 199 1 193 194
M  V30 200 2 194 195
M  V30 201 1 195 196
M  V30 202 1 196 197
M  V30 203 2 197 198
M  V30 204 1 198 199
M  V30 205 2 199 200
M  V30 206 1 200 201
M  V30 207 2 201 202
M  V30 208 2 196 203
M  V30 209 2 191 204
M  V30 210 1 204 187
M  V30 211 1 203 192
M  V30 212 1 202 197
M  V30 213 1 187 205
M  V30 214 1 189 206
M  V30 215 1 190 207
M  V30 216 1 193 208
M  V30 217 1 194 209
M  V30 218 1 195 210
M  V30 219 1 198 211
M  V30 220 1 199 212
M  V30 221 1 201 213
M  V30 222 1 202 214
M  V30 223 1 203 215
M  V30 224 1 204 216
M  V30 225 2 217 218
M  V30 226 1 218 219
M  V30 227 2 219 220
M  V30 228 1 220 221
M  V30 229 1 221 222
M  V30 230 2 222 223
M  V30 231 1 223 224
M  V30 232 2 224 225
M  V30 233 1 225 226
M  V30 234 1 226 227
M  V30 235 2 227 228
M  V30 236 1 228 229
M  V30 237 2 229 230
M  V30 238 1 230 231
M  V30 239 2 231 232
M  V30 240 2 226 233
M  V30 241 2 221 234
M  V30 242 1 234 217
M  V30 243 1 233 222
M  V30 244 1 232 227
M  V30 245 1 217 235
M  V30 246 1 219 236
M  V30 247 1 220 237
M  V30 248 1 223 238
M  V30 249 1 224 239
M  V30 250 1 225 240
M  V30 251 1 228 241
M  V30 252 1 229 242
M  V30 253 1 231 243
M  V30 254 1 232 244
M  V30 255 1 233 245
M  V30 256 1 234 246
M  V30 257 2 247 248
M  V30 258 1 248 249
M  V30 259 2 249 250
M  V30 260 1 250 251
M  V30 261 1 251 252
M  V30 262 2 252 253
M  V30 263 1 253 254
M  V30 264 2 254 255
M  V30 265 1 255 256
M  V30 266 1 256 257
M  V30 267 2 257 258
M  V30 268 1 258 259
M  V30 269 2 259 260
M  V30 270 1 260 261
M  V30 271 2 261 262
M  V30 272 2 256 263
M  V30 273 2 251 264
M  V30 274 1 264 247
M  V30 275 1 263 252
M  V30 276 1 262 257
M  V30 277 1 247 265
M  V30 278 1 249 266
M  V30 279 1 250 267
M  V30 280 1 253 268
M  V30 281 1 254 269
M  V30 282 1 255 270
M  V30 283 1 258 271
M  V30 284 1 259 272
M  V30 285 1 261 273
M  V30 286 1 262 274
M  V30 287 1 263 275
M  V30 288 1 264 276
M  V30 289 2 277 278
M  V30 290 1 278 279
M  V30 291 2 279 280
M  V30 292 1 280 281
M  V30 293 1 281 282
M  V30 294 2 282 283
M  V30 295 1 283 284
M  V30 296 2 284 285
M  V30 297 1 285 286
M  V30 298 1 286 287
M  V30 299 2 287 288
M  V30 300 1 288 289
M  V30 301 2 289 290
M  V30 302 1 290 291
M  V30 303 2 291 292
M  V30 304 2 286 293
M  V30 305 2 281 294
M  V30 306 1 294 277
M  V30 307 1 293 282
M  V30 308 1 292 287
M  V30 309 1 277 295
M  V30 310 1 279 296
M  V30 311 1 280 297
M  V30 312 1 283 298
M  V30 313 1 284 299
M  V30 314 1 285 300
M  V30 315 1 288 301
M  V30 316 1 289 302
M  V30 317 1 291 303
M  V30 318 1 292 304
M  V30 319 1 293 305
M  V30 320 1 294 306
M  V30 321 2 307 308
M  V30 322 1 308 309
M  V30 323 2 309 310
M  V30 324 1 310 311
M  V30 325 1 311 312
M  V30 326 2 312 313
M  V30 327 1 313 314
M  V30 328 2 314 315
M  V30 329 1 315 316
M  V30 330 1 316 317
M  V30 331 2 317 318
M  V30 332 1 318 319
M  V30 333 2 319 320
M  V30 334 1 320 321
M  V30 335 2 321 322
M  V30 336 2 316 323
M  V30 337 2 311 324
M  V30 338 1 324 307
M  V30 339 1 323 312
M  V30 340 1 322 317
M  V30 341 1 307 325
M  V30 342 1 309 326
M  V30 343 1 310 327
M  V30 344 1 313 328
M  V30 345 1 314 329
M  V30 346 1 315 330
M  V30 347 1 318 331
M  V30 348 1 319 332
M  V30 349 1 321 333
M  V30 350 1 322 334
M  V30 351 1 323 335
M  V30 352 1 324 336
M  V30 353 2 337 338
M  V30 354 1 338 339
M  V30 355 2 339 340
M  V30 356 1 340 341
M  V30 357 1 341 342
M  V30 358 2 342 343
M  V30 359 1 343 344
M  V30 360 2 344 345
M  V30 361 1 345 346
M  V30 362 1 346 347
M  V30 363 2 347 348
M  V30 364 1 348 349
M  V30 365 2 349 350
M  V30 366 1 350 351
M  V30 367 2 351 352
M  V30 368 2 346 353
M  V30 369 2 341 354
M  V30 370 1 354 337
M  V30 371 1 353 342
M  V30 372 1 352 347
M  V30 373 1 337 355
M  V30 374 1 339 356
M  V30 375 1 340 357
M  V30 376 1 343 358
M  V30 377 1 344 359
M  V30 378 1 345 360
M  V30 379 1 348 361
M  V30 380 1 349 362
M  V30 381 1 351 363
M  V30 382 1 352 364
M  V30 383 1 353 365
M  V30 384 1 354 366
M  V30 385 9 8 1
M  V30 386 9 38 1
M  V30 387 9 68 1
M  V30 388 9 98 1
M  V30 389 9 20 2
M  V30 390 9 128 2
M  V30 391 9 248 2
M  V30 392 9 278 2
M  V30 393 9 140 3
M  V30 394 9 158 3
M  V30 395 9 188 3
M  V30 396 9 218 3
M  V30 397 9 50 4
M  V30 398 9 170 4
M  V30 399 9 308 4
M  V30 400 9 338 4
M  V30 401 9 80 5
M  V30 402 9 200 5
M  V30 403 9 260 5
M  V30 404 9 320 5
M  V30 405 9 110 6
M  V30 406 9 230 6
M  V30 407 9 290 6
M  V30 408 9 350 6
M  V30 END BOND
M  V30 END CTAB
M  END

$$$$
