
     RDKit          3D

  0  0  0  0  0  0  0  0  0  0999 V3000
M  V30 BEGIN CTAB
M  V30 COUNTS 30 32 0 0 0
M  V30 BEGIN ATOM
M  V30 1 C -0.7528 10.8412 -2.4677 0
M  V30 2 N -0.1462 10.0636 -1.5414 0
M  V30 3 C 0.4470 8.9290 -1.9540 0
M  V30 4 C 0.4534 8.5417 -3.2805 0
M  V30 5 C -0.1633 9.3305 -4.2284 0
M  V30 6 C -0.1552 8.9187 -5.6301 0
M  V30 7 C -0.1539 9.8477 -6.6488 0
M  V30 8 C -0.1458 9.4745 -7.9913 0
M  V30 9 C -0.1387 8.1390 -8.3387 0
M  V30 10 C -0.1398 7.1856 -7.3407 0
M  V30 11 C -0.1316 5.7859 -7.7104 0
M  V30 12 C 0.4772 4.8483 -6.9118 0
M  V30 13 C 0.4504 3.5338 -7.3193 0
M  V30 14 N -0.1462 3.1434 -8.4616 0
M  V30 15 C -0.7465 4.0466 -9.2547 0
M  V30 16 C -0.7329 5.3523 -8.8725 0
M  V30 17 C -0.1480 7.5845 -6.0029 0
M  V30 18 C -0.7708 10.4932 -3.8023 0
M  V30 19 H -1.2213 11.7511 -2.0913 0
M  V30 20 H 0.9546 8.2613 -1.2402 0
M  V30 21 H 0.9279 7.6291 -3.6234 0
M  V30 22 H -0.1594 10.9034 -6.3895 0
M  V30 23 H -0.1450 10.2214 -8.7694 0
M  V30 24 H -0.1323 7.8224 -9.3830 0
M  V30 25 H 0.9763 5.1082 -5.9747 0
M  V30 26 H 0.9310 2.7758 -6.6933 0
M  V30 27 H -1.2282 3.7123 -10.1828 0
M  V30 28 H -1.2320 6.0578 -9.5450 0
M  V30 29 H -0.1489 6.8484 -5.2286 0
M  V30 30 H -1.2657 11.1472 -4.4898 0
M  V30 END ATOM
M  V30 BEGIN BOND
M  V30 1 2 1 2
M  V30 2 1 2 3
M  V30 3 2 3 4
M  V30 4 1 4 5
M  V30 5 1 5 6
M  V30 6 2 6 7
M  V30 7 1 7 8
M  V30 8 2 8 9
M  V30 9 1 9 10
M  V30 10 1 10 11
M  V30 11 2 11 12
M  V30 12 1 12 13
M  V30 13 2 13 14
M  V30 14 1 14 15
M  V30 15 2 15 16
M  V30 16 2 10 17
M  V30 17 2 5 18
M  V30 18 1 18 1
M  V30 19 1 17 6
M  V30 20 1 16 11
M  V30 21 1 1 19
M  V30 22 1 3 20
M  V30 23 1 4 21
M  V30 24 1 7 22
M  V30 25 1 8 23
M  V30 26 1 9 24
M  V30 27 1 12 25
M  V30 28 1 13 26
M  V30 29 1 15 27
M  V30 30 1 16 28
M  V30 31 1 17 29
M  V30 32 1 18 30
M  V30 END BOND
M  V30 END CTAB
M  END

$$$$
