
     RDKit          3D

  0  0  0  0  0  0  0  0  0  0999 V3000
M  V30 BEGIN CTAB
M  V30 COUNTS 30 32 0 0 0
M  V30 BEGIN ATOM
M  V30 1 C 9.2583 0.9501 -2.4439 0
M  V30 2 H 10.1682 1.4185 -2.0675 0
M  V30 3 H 3.5252 -0.7790 -5.9509 0
M  V30 4 C 7.7475 0.3606 -4.2046 0
M  V30 5 C 6.5561 0.3359 -8.3149 0
M  V30 6 C 3.7694 0.9301 -8.8486 0
M  V30 7 H 9.5643 1.4629 -4.4660 0
M  V30 8 C 8.9103 0.9680 -3.7785 0
M  V30 9 H 6.6784 -0.7574 -1.2164 0
M  V30 10 H 1.1929 -0.7337 -6.6695 0
M  V30 11 N 8.4807 0.3435 -1.5176 0
M  V30 12 H 2.1294 1.4254 -10.1590 0
M  V30 13 H 6.0461 -0.7307 -3.5996 0
M  V30 14 C 7.8916 0.3430 -7.9675 0
M  V30 15 C 7.3358 0.3524 -5.6063 0
M  V30 16 C 6.0016 0.3453 -5.9791 0
M  V30 17 C 5.6027 0.3370 -7.3169 0
M  V30 18 C 1.9509 -0.2532 -7.2955 0
M  V30 19 C 7.3461 -0.2498 -1.9302 0
M  V30 20 H 9.3205 0.3566 -6.3657 0
M  V30 21 H 4.4749 1.4292 -9.5211 0
M  V30 22 C 4.2030 0.3288 -7.6866 0
M  V30 23 C 2.4637 0.9437 -9.2309 0
M  V30 24 C 8.2648 0.3511 -6.6250 0
M  V30 25 H 5.2655 0.3461 -5.2048 0
M  V30 26 H 8.6385 0.3422 -8.7456 0
M  V30 27 C 6.9588 -0.2562 -3.2567 0
M  V30 28 N 1.5605 0.3435 -8.4378 0
M  V30 29 H 6.2395 0.3295 -9.3591 0
M  V30 30 C 3.2654 -0.2800 -6.8880 0
M  V30 END ATOM
M  V30 BEGIN BOND
M  V30 1 2 1 11
M  V30 2 1 11 19
M  V30 3 2 19 27
M  V30 4 1 27 4
M  V30 5 1 4 15
M  V30 6 2 15 24
M  V30 7 1 24 14
M  V30 8 2 14 5
M  V30 9 1 5 17
M  V30 10 1 17 22
M  V30 11 2 22 30
M  V30 12 1 30 18
M  V30 13 2 18 28
M  V30 14 1 28 23
M  V30 15 2 23 6
M  V30 16 2 17 16
M  V30 17 2 4 8
M  V30 18 1 8 1
M  V30 19 1 16 15
M  V30 20 1 6 22
M  V30 21 1 1 2
M  V30 22 1 19 9
M  V30 23 1 27 13
M  V30 24 1 24 20
M  V30 25 1 14 26
M  V30 26 1 5 29
M  V30 27 1 30 3
M  V30 28 1 18 10
M  V30 29 1 23 12
M  V30 30 1 6 21
M  V30 31 1 16 25
M  V30 32 1 8 7
M  V30 END BOND
M  V30 END CTAB
M  END

$$$$
