
     RDKit          3D

  0  0  0  0  0  0  0  0  0  0999 V3000
M  V30 BEGIN CTAB
M  V30 COUNTS 30 32 0 0 0
M  V30 BEGIN ATOM
M  V30 1 C 9.8100 3.0525 1.0976 0
M  V30 2 N 9.0324 2.1261 0.4909 0
M  V30 3 C 7.8979 2.5388 -0.1023 0
M  V30 4 C 7.5105 3.8652 -0.1087 0
M  V30 5 C 8.2993 4.8132 0.5080 0
M  V30 6 C 7.8876 6.2148 0.4999 0
M  V30 7 C 8.8165 7.2335 0.4986 0
M  V30 8 C 8.4434 8.5760 0.4905 0
M  V30 9 C 7.1078 8.9234 0.4834 0
M  V30 10 C 6.1545 7.9255 0.4845 0
M  V30 11 C 4.7548 8.2952 0.4763 0
M  V30 12 C 3.8172 7.4965 -0.1325 0
M  V30 13 C 2.5027 7.9040 -0.1057 0
M  V30 14 N 2.1122 9.0463 0.4909 0
M  V30 15 C 3.0154 9.8395 1.0912 0
M  V30 16 C 4.3212 9.4572 1.0776 0
M  V30 17 C 6.5534 6.5876 0.4927 0
M  V30 18 C 9.4621 4.3870 1.1155 0
M  V30 19 H 10.7199 2.6760 1.5660 0
M  V30 20 H 7.2302 1.8250 -0.6099 0
M  V30 21 H 6.5979 4.2081 -0.5832 0
M  V30 22 H 9.8722 6.9742 0.5041 0
M  V30 23 H 9.1903 9.3541 0.4897 0
M  V30 24 H 6.7912 9.9677 0.4770 0
M  V30 25 H 4.0770 6.5594 -0.6316 0
M  V30 26 H 1.7446 7.2780 -0.5862 0
M  V30 27 H 2.6811 10.7675 1.5729 0
M  V30 28 H 5.0266 10.1297 1.5767 0
M  V30 29 H 5.8172 5.8133 0.4936 0
M  V30 30 H 10.1160 5.0746 1.6104 0
M  V30 END ATOM
M  V30 BEGIN BOND
M  V30 1 2 1 2
M  V30 2 1 2 3
M  V30 3 2 3 4
M  V30 4 1 4 5
M  V30 5 1 5 6
M  V30 6 2 6 7
M  V30 7 1 7 8
M  V30 8 2 8 9
M  V30 9 1 9 10
M  V30 10 1 10 11
M  V30 11 2 11 12
M  V30 12 1 12 13
M  V30 13 2 13 14
M  V30 14 1 14 15
M  V30 15 2 15 16
M  V30 16 2 10 17
M  V30 17 2 5 18
M  V30 18 1 18 1
M  V30 19 1 17 6
M  V30 20 1 16 11
M  V30 21 1 1 19
M  V30 22 1 3 20
M  V30 23 1 4 21
M  V30 24 1 7 22
M  V30 25 1 8 23
M  V30 26 1 9 24
M  V30 27 1 12 25
M  V30 28 1 13 26
M  V30 29 1 15 27
M  V30 30 1 16 28
M  V30 31 1 17 29
M  V30 32 1 18 30
M  V30 END BOND
M  V30 END CTAB
M  END

$$$$
