
     RDKit          3D

  0  0  0  0  0  0  0  0  0  0999 V3000
M  V30 BEGIN CTAB
M  V30 COUNTS 30 32 0 0 0
M  V30 BEGIN ATOM
M  V30 1 C -9.1563 -0.4534 -3.3433 0
M  V30 2 N -8.3787 0.1532 -2.4169 0
M  V30 3 C -7.2442 0.7464 -2.8296 0
M  V30 4 C -6.8568 0.7528 -4.1560 0
M  V30 5 C -7.6456 0.1361 -5.1040 0
M  V30 6 C -7.2339 0.1442 -6.5056 0
M  V30 7 C -8.1628 0.1455 -7.5243 0
M  V30 8 C -7.7897 0.1536 -8.8668 0
M  V30 9 C -6.4541 0.1607 -9.2142 0
M  V30 10 C -5.5008 0.1596 -8.2163 0
M  V30 11 C -4.1011 0.1678 -8.5860 0
M  V30 12 C -3.1635 0.7767 -7.7873 0
M  V30 13 C -1.8489 0.7499 -8.1949 0
M  V30 14 N -1.4585 0.1532 -9.3371 0
M  V30 15 C -2.3617 -0.4471 -10.1303 0
M  V30 16 C -3.6674 -0.4334 -9.7480 0
M  V30 17 C -5.8997 0.1514 -6.8785 0
M  V30 18 C -8.8083 -0.4714 -4.6778 0
M  V30 19 H -10.0662 -0.9218 -2.9669 0
M  V30 20 H -6.5765 1.2541 -2.1158 0
M  V30 21 H -5.9442 1.2274 -4.4989 0
M  V30 22 H -9.2185 0.1400 -7.2650 0
M  V30 23 H -8.5366 0.1544 -9.6449 0
M  V30 24 H -6.1375 0.1671 -10.2585 0
M  V30 25 H -3.4233 1.2757 -6.8502 0
M  V30 26 H -1.0909 1.2304 -7.5689 0
M  V30 27 H -2.0274 -0.9288 -11.0583 0
M  V30 28 H -4.3729 -0.9326 -10.4205 0
M  V30 29 H -5.1635 0.1506 -6.1041 0
M  V30 30 H -9.4623 -0.9663 -5.3654 0
M  V30 END ATOM
M  V30 BEGIN BOND
M  V30 1 2 1 2
M  V30 2 1 2 3
M  V30 3 2 3 4
M  V30 4 1 4 5
M  V30 5 1 5 6
M  V30 6 2 6 7
M  V30 7 1 7 8
M  V30 8 2 8 9
M  V30 9 1 9 10
M  V30 10 1 10 11
M  V30 11 2 11 12
M  V30 12 1 12 13
M  V30 13 2 13 14
M  V30 14 1 14 15
M  V30 15 2 15 16
M  V30 16 2 10 17
M  V30 17 2 5 18
M  V30 18 1 18 1
M  V30 19 1 17 6
M  V30 20 1 16 11
M  V30 21 1 1 19
M  V30 22 1 3 20
M  V30 23 1 4 21
M  V30 24 1 7 22
M  V30 25 1 8 23
M  V30 26 1 9 24
M  V30 27 1 12 25
M  V30 28 1 13 26
M  V30 29 1 15 27
M  V30 30 1 16 28
M  V30 31 1 17 29
M  V30 32 1 18 30
M  V30 END BOND
M  V30 END CTAB
M  END

$$$$
