
     RDKit          3D

  0  0  0  0  0  0  0  0  0  0999 V3000
M  V30 BEGIN CTAB
M  V30 COUNTS 30 32 0 0 0
M  V30 BEGIN ATOM
M  V30 1 C -9.7426 -2.8568 0.6901 0
M  V30 2 N -8.9650 -1.9305 0.0835 0
M  V30 3 C -7.8305 -2.3431 -0.5097 0
M  V30 4 C -7.4431 -3.6696 -0.5161 0
M  V30 5 C -8.2319 -4.6175 0.1006 0
M  V30 6 C -7.8202 -6.0192 0.0924 0
M  V30 7 C -8.7491 -7.0379 0.0911 0
M  V30 8 C -8.3760 -8.3804 0.0831 0
M  V30 9 C -7.0404 -8.7278 0.0760 0
M  V30 10 C -6.0871 -7.7298 0.0771 0
M  V30 11 C -4.6874 -8.0995 0.0689 0
M  V30 12 C -3.7498 -7.3009 -0.5400 0
M  V30 13 C -2.4352 -7.7084 -0.5132 0
M  V30 14 N -2.0448 -8.8507 0.0835 0
M  V30 15 C -2.9480 -9.6438 0.6838 0
M  V30 16 C -4.2537 -9.2615 0.6701 0
M  V30 17 C -6.4860 -6.3920 0.0853 0
M  V30 18 C -9.3946 -4.1914 0.7081 0
M  V30 19 H -10.6525 -2.4804 1.1585 0
M  V30 20 H -7.1628 -1.6293 -1.0174 0
M  V30 21 H -6.5305 -4.0125 -0.9907 0
M  V30 22 H -9.8048 -6.7786 0.0967 0
M  V30 23 H -9.1229 -9.1585 0.0822 0
M  V30 24 H -6.7238 -9.7720 0.0696 0
M  V30 25 H -4.0096 -6.3638 -1.0390 0
M  V30 26 H -1.6772 -7.0824 -0.9937 0
M  V30 27 H -2.6137 -10.5719 1.1654 0
M  V30 28 H -4.9592 -9.9340 1.1693 0
M  V30 29 H -5.7498 -5.6177 0.0861 0
M  V30 30 H -10.0486 -4.8789 1.2029 0
M  V30 END ATOM
M  V30 BEGIN BOND
M  V30 1 2 1 2
M  V30 2 1 2 3
M  V30 3 2 3 4
M  V30 4 1 4 5
M  V30 5 1 5 6
M  V30 6 2 6 7
M  V30 7 1 7 8
M  V30 8 2 8 9
M  V30 9 1 9 10
M  V30 10 1 10 11
M  V30 11 2 11 12
M  V30 12 1 12 13
M  V30 13 2 13 14
M  V30 14 1 14 15
M  V30 15 2 15 16
M  V30 16 2 10 17
M  V30 17 2 5 18
M  V30 18 1 18 1
M  V30 19 1 17 6
M  V30 20 1 16 11
M  V30 21 1 1 19
M  V30 22 1 3 20
M  V30 23 1 4 21
M  V30 24 1 7 22
M  V30 25 1 8 23
M  V30 26 1 9 24
M  V30 27 1 12 25
M  V30 28 1 13 26
M  V30 29 1 15 27
M  V30 30 1 16 28
M  V30 31 1 17 29
M  V30 32 1 18 30
M  V30 END BOND
M  V30 END CTAB
M  END

$$$$
