
     RDKit          3D

  0  0  0  0  0  0  0  0  0  0999 V3000
M  V30 BEGIN CTAB
M  V30 COUNTS 191 202 0 0 0
M  V30 BEGIN ATOM
M  V30 1 C 0.8509 -4.3669 1.1635 0
M  V30 2 C -0.5452 -4.4608 1.0054 0
M  V30 3 C -1.3902 -3.9037 1.9881 0
M  V30 4 C -0.8464 -3.2445 3.1082 0
M  V30 5 C 0.5526 -3.1561 3.2466 0
M  V30 6 C 1.4079 -3.7193 2.2820 0
M  V30 7 C 2.8777 -3.5979 2.3961 0
M  V30 8 C -1.7093 -2.5957 4.1188 0
M  V30 9 C -1.1292 -5.0844 -0.2045 0
M  V30 10 H 1.4882 -4.7864 0.3965 0
M  V30 11 H -2.4661 -3.9516 1.8868 0
M  V30 12 H 0.9931 -2.6399 4.0890 0
M  V30 13 H 3.4439 -3.6679 1.4790 0
M  V30 14 H -1.2781 -1.7659 4.6587 0
M  V30 15 H -2.1350 -4.7923 -0.4689 0
M  V30 16 C -1.4074 -1.7558 -3.7109 0
M  V30 17 C -0.1078 -2.2499 -3.9281 0
M  V30 18 C 0.9152 -1.3552 -4.3002 0
M  V30 19 C 0.6485 0.0202 -4.4484 0
M  V30 20 C -0.6650 0.4930 -4.2548 0
M  V30 21 C -1.6960 -0.3893 -3.8829 0
M  V30 22 C -3.0686 0.0950 -3.6294 0
M  V30 23 C 1.7358 0.9847 -4.7313 0
M  V30 24 C 0.2098 -3.6813 -3.7256 0
M  V30 25 H -2.1797 -2.4457 -3.3987 0
M  V30 26 H 1.9288 -1.7040 -4.4459 0
M  V30 27 H -0.8993 1.5435 -4.3604 0
M  V30 28 H -3.6641 -0.4780 -2.9340 0
M  V30 29 H 1.5557 2.0137 -4.4575 0
M  V30 30 H 1.2514 -3.9729 -3.7062 0
M  V30 31 C 4.4931 0.5288 0.2852 0
M  V30 32 C 4.1191 0.8824 1.5970 0
M  V30 33 C 3.4770 2.1155 1.8207 0
M  V30 34 C 3.1877 2.9816 0.7503 0
M  V30 35 C 3.5655 2.6134 -0.5554 0
M  V30 36 C 4.2273 1.3936 -0.7968 0
M  V30 37 C 4.6189 0.9942 -2.1696 0
M  V30 38 C 2.4424 4.2407 0.9696 0
M  V30 39 C 4.3611 -0.0207 2.7455 0
M  V30 40 H 4.9717 -0.4278 0.1248 0
M  V30 41 H 3.1622 2.4032 2.8151 0
M  V30 42 H 3.3416 3.2562 -1.3958 0
M  V30 43 H 4.9296 -0.0291 -2.3339 0
M  V30 44 H 1.9182 4.6495 0.1184 0
M  V30 45 H 3.8980 0.2326 3.6902 0
M  V30 46 C -2.5484 1.9447 2.9167 0
M  V30 47 C -3.5075 1.1360 2.2767 0
M  V30 48 C -3.8807 1.4273 0.9503 0
M  V30 49 C -3.3065 2.5133 0.2634 0
M  V30 50 C -2.3450 3.3088 0.9142 0
M  V30 51 C -1.9616 3.0329 2.2407 0
M  V30 52 C -0.9382 3.8519 2.9271 0
M  V30 53 C -3.6851 2.8306 -1.1307 0
M  V30 54 C -4.1229 -0.0247 2.9578 0
M  V30 55 H -2.2608 1.7024 3.9309 0
M  V30 56 H -4.6039 0.8130 0.4311 0
M  V30 57 H -1.8732 4.1354 0.4000 0
M  V30 58 H -0.5252 3.4795 3.8553 0
M  V30 59 H -3.1025 3.5756 -1.6569 0
M  V30 60 H -4.7050 -0.7094 2.3549 0
M  V30 61 C -2.3525 -6.8361 -4.7718 0
M  V30 62 C -3.0163 -7.3867 -3.4904 0
M  V30 63 C -2.5650 -6.5873 -2.2481 0
M  V30 64 C -1.0211 -6.6076 -2.1293 0
M  V30 65 C -0.3534 -6.0104 -3.3978 0
M  V30 66 C -0.8094 -6.8024 -4.6426 0
M  V30 67 N -0.7316 -4.5930 -3.6004 0
M  V30 68 N -0.4591 -5.9808 -0.9037 0
M  V30 69 H -2.7169 -5.8231 -4.9611 0
M  V30 70 H -2.6395 -7.4430 -5.6322 0
M  V30 71 H -2.7525 -8.4386 -3.3635 0
M  V30 72 H -4.1022 -7.3343 -3.5863 0
M  V30 73 H -3.0085 -7.0144 -1.3478 0
M  V30 74 H -2.9148 -5.5578 -2.3404 0
M  V30 75 H -0.7195 -7.6551 -2.0851 0
M  V30 76 H 0.7296 -6.1062 -3.2920 0
M  V30 77 H -0.4243 -7.8209 -4.5826 0
M  V30 78 H -0.3775 -6.3467 -5.5348 0
M  V30 79 C 7.7307 -2.5399 3.0807 0
M  V30 80 C 7.2704 -3.9979 2.8625 0
M  V30 81 C 5.7568 -4.0565 2.5573 0
M  V30 82 C 4.9482 -3.3712 3.6876 0
M  V30 83 C 5.3849 -1.8936 3.8790 0
M  V30 84 C 6.8971 -1.8439 4.1855 0
M  V30 85 N 5.1514 -1.0702 2.6675 0
M  V30 86 N 3.4700 -3.4734 3.5679 0
M  V30 87 H 7.6234 -1.9826 2.1462 0
M  V30 88 H 8.7893 -2.5168 3.3444 0
M  V30 89 H 7.4881 -4.5886 3.7546 0
M  V30 90 H 7.8291 -4.4413 2.0361 0
M  V30 91 H 5.4365 -5.0942 2.4552 0
M  V30 92 H 5.5686 -3.5507 1.6092 0
M  V30 93 H 5.2013 -3.8897 4.6138 0
M  V30 94 H 4.8392 -1.4833 4.7320 0
M  V30 95 H 7.0856 -2.3260 5.1455 0
M  V30 96 H 7.2098 -0.8029 4.2797 0
M  V30 97 C -4.8760 -0.2626 7.1744 0
M  V30 98 C -3.8874 -1.2990 7.7489 0
M  V30 99 C -2.9356 -1.8068 6.6467 0
M  V30 100 C -3.7415 -2.4090 5.4672 0
M  V30 101 C -4.7297 -1.3742 4.8639 0
M  V30 102 C -5.6633 -0.8389 5.9719 0
M  V30 103 N -4.0370 -0.2123 4.2580 0
M  V30 104 N -2.9143 -3.0468 4.4078 0
M  V30 105 H -4.3248 0.6236 6.8496 0
M  V30 106 H -5.5700 0.0615 7.9517 0
M  V30 107 H -4.4384 -2.1397 8.1747 0
M  V30 108 H -3.3079 -0.8490 8.5572 0
M  V30 109 H -2.2602 -2.5615 7.0521 0
M  V30 110 H -2.3308 -0.9699 6.2961 0
M  V30 111 H -4.3536 -3.2114 5.8822 0
M  V30 112 H -5.3404 -1.8841 4.1154 0
M  V30 113 H -6.3093 -1.6477 6.3143 0
M  V30 114 H -6.3090 -0.0653 5.5535 0
M  V30 115 C 5.9046 3.7714 -5.1031 0
M  V30 116 C 4.7499 3.9307 -6.1171 0
M  V30 117 C 3.5384 3.0600 -5.7159 0
M  V30 118 C 3.9641 1.5759 -5.5684 0
M  V30 119 C 5.0881 1.4162 -4.5084 0
M  V30 120 C 6.2976 2.2841 -4.9182 0
M  V30 121 N 4.6522 1.8595 -3.1623 0
M  V30 122 N 2.8618 0.6116 -5.3077 0
M  V30 123 H 5.5984 4.1826 -4.1377 0
M  V30 124 H 6.7721 4.3461 -5.4314 0
M  V30 125 H 5.0934 3.6421 -7.1124 0
M  V30 126 H 4.4482 4.9786 -6.1705 0
M  V30 127 H 2.7539 3.1440 -6.4690 0
M  V30 128 H 3.1376 3.4274 -4.7698 0
M  V30 129 H 4.3959 1.2750 -6.5244 0
M  V30 130 H 5.3971 0.3686 -4.4865 0
M  V30 131 H 6.7169 1.8982 -5.8479 0
M  V30 132 H 7.0740 2.2016 -4.1562 0
M  V30 133 C -7.5632 2.0613 -2.7376 0
M  V30 134 C -7.4184 0.9094 -3.7541 0
M  V30 135 C -5.9670 0.3883 -3.7755 0
M  V30 136 C -4.9848 1.5400 -4.1046 0
M  V30 137 C -5.1007 2.7023 -3.0821 0
M  V30 138 C -6.5610 3.2052 -3.0357 0
M  V30 139 N -4.7356 2.2885 -1.7094 0
M  V30 140 N -3.5742 1.1142 -4.2961 0
M  V30 141 H -7.3831 1.6785 -1.7295 0
M  V30 142 H -8.5834 2.4479 -2.7531 0
M  V30 143 H -7.6978 1.2588 -4.7501 0
M  V30 144 H -8.0977 0.0960 -3.4925 0
M  V30 145 H -5.8638 -0.4039 -4.5182 0
M  V30 146 H -5.7303 -0.0349 -2.7984 0
M  V30 147 H -5.2945 1.9502 -5.0669 0
M  V30 148 H -4.4599 3.5210 -3.4176 0
M  V30 149 H -6.8104 3.6693 -3.9905 0
M  V30 150 H -6.6493 3.9767 -2.2693 0
M  V30 151 C -0.5782 8.0215 2.3518 0
M  V30 152 C 0.6774 8.2652 1.4867 0
M  V30 153 C 1.3455 6.9286 1.0988 0
M  V30 154 C 1.6947 6.1122 2.3688 0
M  V30 155 C 0.4254 5.8286 3.2161 0
M  V30 156 C -0.2446 7.1658 3.5992 0
M  V30 157 N -0.5723 5.0296 2.4682 0
M  V30 158 N 2.4520 4.8539 2.1372 0
M  V30 159 H -1.3360 7.5070 1.7548 0
M  V30 160 H -1.0106 8.9748 2.6600 0
M  V30 161 H 1.3898 8.8810 2.0389 0
M  V30 162 H 0.4027 8.8154 0.5850 0
M  V30 163 H 2.2525 7.1175 0.5236 0
M  V30 164 H 0.6591 6.3589 0.4700 0
M  V30 165 H 2.3448 6.7380 2.9824 0
M  V30 166 H 0.7278 5.3098 4.1287 0
M  V30 167 H 0.4211 7.7251 4.2573 0
M  V30 168 H -1.1580 6.9618 4.1600 0
M  V30 169 C 0.5577 1.7079 -2.6936 0
M  V30 170 C -0.8841 2.1403 -2.6197 0
M  V30 171 H 0.6938 1.2544 -3.7133 0
M  V30 172 H 1.2727 2.5427 -2.6425 0
M  V30 173 H 0.7708 0.9012 -1.9595 0
M  V30 174 H -1.4854 1.3166 -3.0848 0
M  V30 175 H -1.2523 2.2139 -1.5747 0
M  V30 176 H -0.9995 3.1015 -3.1545 0
M  V30 177 C -1.8698 -1.0529 -0.3110 0
M  V30 178 C -0.4148 -1.1455 0.0281 0
M  V30 179 C 0.3630 -0.9951 -1.2526 0
M  V30 180 C -0.5918 -0.3790 -2.2336 0
M  V30 181 C -1.9839 -0.6650 -1.7561 0
M  V30 182 H -2.3030 -0.2286 0.2894 0
M  V30 183 H -2.4208 -2.0019 -0.1743 0
M  V30 184 H -0.1809 -2.1077 0.5532 0
M  V30 185 H -0.0931 -0.3470 0.7335 0
M  V30 186 H 0.7072 -1.9998 -1.5488 0
M  V30 187 H 1.2077 -0.2743 -1.1072 0
M  V30 188 H -0.4853 0.7347 -2.2747 0
M  V30 189 H -0.3866 -0.7499 -3.2457 0
M  V30 190 H -2.4341 -1.4897 -2.3730 0
M  V30 191 H -2.6837 0.2024 -1.9162 0
M  V30 END ATOM
M  V30 BEGIN BOND
M  V30 1 2 1 2
M  V30 2 1 2 3
M  V30 3 2 3 4
M  V30 4 1 4 5
M  V30 5 2 5 6
M  V30 6 1 6 7
M  V30 7 1 4 8
M  V30 8 1 2 9
M  V30 9 1 6 1
M  V30 10 1 1 10
M  V30 11 1 3 11
M  V30 12 1 5 12
M  V30 13 1 7 13
M  V30 14 1 8 14
M  V30 15 1 9 15
M  V30 16 2 16 17
M  V30 17 1 17 18
M  V30 18 2 18 19
M  V30 19 1 19 20
M  V30 20 2 20 21
M  V30 21 1 21 22
M  V30 22 1 19 23
M  V30 23 1 17 24
M  V30 24 1 21 16
M  V30 25 1 16 25
M  V30 26 1 18 26
M  V30 27 1 20 27
M  V30 28 1 22 28
M  V30 29 1 23 29
M  V30 30 1 24 30
M  V30 31 2 31 32
M  V30 32 1 32 33
M  V30 33 2 33 34
M  V30 34 1 34 35
M  V30 35 2 35 36
M  V30 36 1 36 37
M  V30 37 1 34 38
M  V30 38 1 32 39
M  V30 39 1 36 31
M  V30 40 1 31 40
M  V30 41 1 33 41
M  V30 42 1 35 42
M  V30 43 1 37 43
M  V30 44 1 38 44
M  V30 45 1 39 45
M  V30 46 2 46 47
M  V30 47 1 47 48
M  V30 48 2 48 49
M  V30 49 1 49 50
M  V30 50 2 50 51
M  V30 51 1 51 52
M  V30 52 1 49 53
M  V30 53 1 47 54
M  V30 54 1 51 46
M  V30 55 1 46 55
M  V30 56 1 48 56
M  V30 57 1 50 57
M  V30 58 1 52 58
M  V30 59 1 53 59
M  V30 60 1 54 60
M  V30 61 1 61 62
M  V30 62 1 62 63
M  V30 63 1 63 64
M  V30 64 1 64 65
M  V30 65 1 65 66
M  V30 66 1 65 67
M  V30 67 1 64 68
M  V30 68 1 66 61
M  V30 69 1 61 69
M  V30 70 1 61 70
M  V30 71 1 62 71
M  V30 72 1 62 72
M  V30 73 1 63 73
M  V30 74 1 63 74
M  V30 75 1 64 75
M  V30 76 1 65 76
M  V30 77 1 66 77
M  V30 78 1 66 78
M  V30 79 1 79 80
M  V30 80 1 80 81
M  V30 81 1 81 82
M  V30 82 1 82 83
M  V30 83 1 83 84
M  V30 84 1 83 85
M  V30 85 1 82 86
M  V30 86 1 84 79
M  V30 87 1 79 87
M  V30 88 1 79 88
M  V30 89 1 80 89
M  V30 90 1 80 90
M  V30 91 1 81 91
M  V30 92 1 81 92
M  V30 93 1 82 93
M  V30 94 1 83 94
M  V30 95 1 84 95
M  V30 96 1 84 96
M  V30 97 1 97 98
M  V30 98 1 98 99
M  V30 99 1 99 100
M  V30 100 1 100 101
M  V30 101 1 101 102
M  V30 102 1 101 103
M  V30 103 1 100 104
M  V30 104 1 102 97
M  V30 105 1 97 105
M  V30 106 1 97 106
M  V30 107 1 98 107
M  V30 108 1 98 108
M  V30 109 1 99 109
M  V30 110 1 99 110
M  V30 111 1 100 111
M  V30 112 1 101 112
M  V30 113 1 102 113
M  V30 114 1 102 114
M  V30 115 1 115 116
M  V30 116 1 116 117
M  V30 117 1 117 118
M  V30 118 1 118 119
M  V30 119 1 119 120
M  V30 120 1 119 121
M  V30 121 1 118 122
M  V30 122 1 120 115
M  V30 123 1 115 123
M  V30 124 1 115 124
M  V30 125 1 116 125
M  V30 126 1 116 126
M  V30 127 1 117 127
M  V30 128 1 117 128
M  V30 129 1 118 129
M  V30 130 1 119 130
M  V30 131 1 120 131
M  V30 132 1 120 132
M  V30 133 1 133 134
M  V30 134 1 134 135
M  V30 135 1 135 136
M  V30 136 1 136 137
M  V30 137 1 137 138
M  V30 138 1 137 139
M  V30 139 1 136 140
M  V30 140 1 138 133
M  V30 141 1 133 141
M  V30 142 1 133 142
M  V30 143 1 134 143
M  V30 144 1 134 144
M  V30 145 1 135 145
M  V30 146 1 135 146
M  V30 147 1 136 147
M  V30 148 1 137 148
M  V30 149 1 138 149
M  V30 150 1 138 150
M  V30 151 1 151 152
M  V30 152 1 152 153
M  V30 153 1 153 154
M  V30 154 1 154 155
M  V30 155 1 155 156
M  V30 156 1 155 157
M  V30 157 1 154 158
M  V30 158 1 156 151
M  V30 159 1 151 159
M  V30 160 1 151 160
M  V30 161 1 152 161
M  V30 162 1 152 162
M  V30 163 1 153 163
M  V30 164 1 153 164
M  V30 165 1 154 165
M  V30 166 1 155 166
M  V30 167 1 156 167
M  V30 168 1 156 168
M  V30 169 2 9 68
M  V30 170 2 24 67
M  V30 171 2 7 86
M  V30 172 2 39 85
M  V30 173 2 8 104
M  V30 174 2 54 103
M  V30 175 2 23 122
M  V30 176 2 37 121
M  V30 177 2 22 140
M  V30 178 2 53 139
M  V30 179 2 38 158
M  V30 180 2 52 157
M  V30 181 1 169 170
M  V30 182 1 169 171
M  V30 183 1 169 172
M  V30 184 1 169 173
M  V30 185 1 170 174
M  V30 186 1 170 175
M  V30 187 1 170 176
M  V30 188 1 177 178
M  V30 189 1 178 179
M  V30 190 1 179 180
M  V30 191 1 180 181
M  V30 192 1 181 177
M  V30 193 1 177 182
M  V30 194 1 177 183
M  V30 195 1 178 184
M  V30 196 1 178 185
M  V30 197 1 179 186
M  V30 198 1 179 187
M  V30 199 1 180 188
M  V30 200 1 180 189
M  V30 201 1 181 190
M  V30 202 1 181 191
M  V30 END BOND
M  V30 END CTAB
M  END

$$$$
