
     RDKit          3D

  0  0  0  0  0  0  0  0  0  0999 V3000
M  V30 BEGIN CTAB
M  V30 COUNTS 24 25 0 0 0
M  V30 BEGIN ATOM
M  V30 1 C 4.0824 -1.3099 0.4629 0
M  V30 2 C 4.6658 -0.4511 -0.4379 0
M  V30 3 C 3.8411 0.4481 -1.1137 0
M  V30 4 N 2.5144 0.5002 -0.9148 0
M  V30 5 C 1.9204 -0.3263 -0.0419 0
M  V30 6 C 2.7224 -1.2276 0.6402 0
M  V30 7 C 0.4780 -0.2936 0.1966 0
M  V30 8 N -0.2590 0.5410 -0.4359 0
M  V30 9 C -1.6654 0.5662 -0.1974 0
M  V30 10 C -2.2443 1.4471 0.6927 0
M  V30 11 C -3.6090 1.4746 0.9269 0
M  V30 12 C -4.4468 0.5953 0.2553 0
M  V30 13 C -3.8757 -0.3046 -0.6508 0
M  V30 14 C -2.5045 -0.3048 -0.8612 0
M  V30 15 Br -6.3207 0.6099 0.5558 0
M  V30 16 H 4.6997 -2.0112 0.9948 0
M  V30 17 H 5.7451 -0.4793 -0.6128 0
M  V30 18 H 4.3430 1.1168 -1.8240 0
M  V30 19 H 2.2130 -1.8924 1.3483 0
M  V30 20 H 0.0609 -0.9857 0.9125 0
M  V30 21 H -1.6083 2.1310 1.2174 0
M  V30 22 H -4.0685 2.1725 1.6322 0
M  V30 23 H -4.5508 -0.9796 -1.1614 0
M  V30 24 H -2.1332 -1.0367 -1.5839 0
M  V30 END ATOM
M  V30 BEGIN BOND
M  V30 1 2 1 2
M  V30 2 1 2 3
M  V30 3 2 3 4
M  V30 4 1 4 5
M  V30 5 2 5 6
M  V30 6 1 5 7
M  V30 7 2 7 8
M  V30 8 1 8 9
M  V30 9 2 9 10
M  V30 10 1 10 11
M  V30 11 2 11 12
M  V30 12 1 12 13
M  V30 13 2 13 14
M  V30 14 1 12 15
M  V30 15 1 6 1
M  V30 16 1 14 9
M  V30 17 1 1 16
M  V30 18 1 2 17
M  V30 19 1 3 18
M  V30 20 1 6 19
M  V30 21 1 7 20
M  V30 22 1 10 21
M  V30 23 1 11 22
M  V30 24 1 13 23
M  V30 25 1 14 24
M  V30 END BOND
M  V30 END CTAB
M  END

$$$$
