12

C 1.284216 -0.799807 -0.041398
C -0.095370 -1.120724 0.247612
C -1.078796 -0.169268 -0.034072
C -0.814583 1.068668 -0.554098
C 0.516262 1.363249 -0.844494
C 1.557921 0.373021 -0.569725
H -0.355063 -2.064373 0.668118
H 0.750841 2.312562 -1.256451
Du 2.109611 -1.662794 0.650131
Du 2.748231 0.672752 -1.060931
Du -1.871267 1.963658 -0.548616
Du -2.416773 -0.716829 0.133273
