
     RDKit          3D

  0  0  0  0  0  0  0  0  0  0999 V3000
M  V30 BEGIN CTAB
M  V30 COUNTS 4 3 0 0 0
M  V30 BEGIN ATOM
M  V30 1 C 2.4454 -1.2832 -0.5829 0
M  V30 2 C 3.5114 -1.8034 -0.8515 0
M  V30 3 Br 1.1833 -0.6524 -0.2771 0
M  V30 4 Br 4.7802 -2.4094 -1.1479 0
M  V30 END ATOM
M  V30 BEGIN BOND
M  V30 1 3 1 2
M  V30 2 1 3 1
M  V30 3 1 2 4
M  V30 END BOND
M  V30 END CTAB
M  END

$$$$
