12

C 5.218354 1.301794 -2.109892
C 5.383277 2.498010 -2.773169
C 6.573469 2.861264 -3.317564
C 7.643138 2.029164 -3.202989
C 7.528721 0.817756 -2.551149
C 6.301777 0.479678 -2.009197
H 4.507804 3.150954 -2.840747
H 6.581938 3.834959 -3.823110
H 8.584967 2.336920 -3.643990
H 8.382376 0.192382 -2.493064
H 6.231303 -0.486128 -1.483141
Du 3.982079 0.977168 -1.589580
