12

C -7.268781 -3.850279 -0.618192
C -6.289127 -4.166995 -1.548685
C -5.069409 -3.534525 -1.431914
C -4.803536 -2.614224 -0.434675
C -5.829288 -2.333026 0.476980
C -7.052234 -2.942273 0.390821
H -8.220090 -4.343360 -0.709010
H -6.517850 -4.887977 -2.318735
H -4.285806 -3.765391 -2.148288
H -5.640057 -1.611757 1.269036
H -7.820187 -2.705884 1.105477
DummyAtom -3.537448 -1.949879 -0.303734
