12

C -4.774152 2.409485 1.132485
C -5.117854 2.687661 2.423792
C -6.335315 3.287173 2.653102
C -7.198972 3.607268 1.631238
C -6.862890 3.331615 0.327529
C -5.640870 2.729657 0.095105
H -4.431372 2.432444 3.227131
H -6.602895 3.504783 3.670155
H -8.145597 4.075045 1.827921
H -7.511750 3.566058 -0.508222
H -5.392285 2.519081 -0.944500
Du -3.509135 1.784183 0.867502
