14

C 4.082411 -1.309904 0.462907
C 4.665797 -0.451104 -0.437862
C 3.841118 0.448053 -1.113697
N 2.514351 0.500187 -0.914768
C 1.920434 -0.326253 -0.041892
C 2.722356 -1.227568 0.640178
C 0.477961 -0.293566 0.196554
N -0.259008 0.540954 -0.435909
H 4.699656 -2.011158 0.994833
H 5.745129 -0.479269 -0.612839
H 4.343023 1.116780 -1.823979
H 2.213020 -1.892405 1.348251
H 0.060895 -0.985650 0.912540
Du -1.665373 0.566250 -0.197360
