12

C 5.317606 -4.889049 3.689437
C 4.050656 -4.494193 4.082356
C 3.280315 -3.751623 3.272784
C 3.765871 -3.377589 2.002755
C 4.987648 -3.759818 1.599464
C 5.746616 -4.515622 2.471484
H 5.863102 -5.465330 4.431344
H 3.666954 -4.777428 5.074523
H 2.283888 -3.430895 3.539764
H 5.382790 -3.474743 0.614929
H 6.754329 -4.805408 2.151574
Du 2.877042 -2.442922 1.268696
