12

C -1.207441 -0.710829 -0.098284
C -0.011561 -1.323115 -0.392676
C 1.183307 -0.652351 -0.277092
C 1.168907 0.655843 0.142023
C 0.000171 1.309526 0.447398
C -1.184707 0.615843 0.323667
H -0.011936 -2.352908 -0.721632
H -0.004046 2.336412 0.775804
DummyAtom -2.472012 -1.380072 -0.207625
DummyAtom -2.440733 1.241534 0.627313
DummyAtom 2.453717 1.336727 0.253408
DummyAtom 2.445371 -1.283230 -0.582889
