
     RDKit          3D

  0  0  0  0  0  0  0  0  0  0999 V3000
M  V30 BEGIN CTAB
M  V30 COUNTS 12 12 0 0 0
M  V30 BEGIN ATOM
M  V30 1 C 5.2184 1.3018 -2.1099 0
M  V30 2 C 5.3833 2.4980 -2.7732 0
M  V30 3 C 6.5735 2.8613 -3.3176 0
M  V30 4 C 7.6431 2.0292 -3.2030 0
M  V30 5 C 7.5287 0.8178 -2.5511 0
M  V30 6 C 6.3018 0.4797 -2.0092 0
M  V30 7 H 4.5078 3.1510 -2.8407 0
M  V30 8 H 6.5819 3.8350 -3.8231 0
M  V30 9 H 8.5850 2.3369 -3.6440 0
M  V30 10 H 8.3824 0.1924 -2.4931 0
M  V30 11 H 6.2313 -0.4861 -1.4831 0
M  V30 12 Br 3.9821 0.9772 -1.5896 0
M  V30 END ATOM
M  V30 BEGIN BOND
M  V30 1 1 1 2
M  V30 2 1 2 3
M  V30 3 1 3 4
M  V30 4 1 4 5
M  V30 5 1 5 6
M  V30 6 1 6 1
M  V30 7 1 2 7
M  V30 8 1 3 8
M  V30 9 1 4 9
M  V30 10 1 5 10
M  V30 11 1 6 11
M  V30 12 1 12 1
M  V30 END BOND
M  V30 END CTAB
M  END

$$$$
