
     RDKit          3D

  0  0  0  0  0  0  0  0  0  0999 V3000
M  V30 BEGIN CTAB
M  V30 COUNTS 12 12 0 0 0
M  V30 BEGIN ATOM
M  V30 1 C -1.6654 0.5662 -0.1974 0
M  V30 2 C -2.2443 1.4471 0.6927 0
M  V30 3 C -3.6090 1.4746 0.9269 0
M  V30 4 C -4.4468 0.5953 0.2553 0
M  V30 5 C -3.8757 -0.3046 -0.6508 0
M  V30 6 C -2.5045 -0.3048 -0.8612 0
M  V30 7 Br -6.3207 0.6099 0.5558 0
M  V30 8 H -1.6083 2.1310 1.2174 0
M  V30 9 H -4.0685 2.1725 1.6322 0
M  V30 10 H -4.5508 -0.9796 -1.1614 0
M  V30 11 H -2.1332 -1.0367 -1.5839 0
M  V30 12 Br -0.2590 0.5410 -0.4359 0
M  V30 END ATOM
M  V30 BEGIN BOND
M  V30 1 1 1 2
M  V30 2 1 2 3
M  V30 3 1 3 4
M  V30 4 1 4 5
M  V30 5 1 5 6
M  V30 6 1 4 7
M  V30 7 1 6 1
M  V30 8 1 2 8
M  V30 9 1 3 9
M  V30 10 1 5 10
M  V30 11 1 6 11
M  V30 12 1 12 1
M  V30 END BOND
M  V30 END CTAB
M  END

$$$$
