
     RDKit          3D

  0  0  0  0  0  0  0  0  0  0999 V3000
M  V30 BEGIN CTAB
M  V30 COUNTS 12 12 0 0 0
M  V30 BEGIN ATOM
M  V30 1 C -3.9313 3.7166 -0.5728 0
M  V30 2 C -4.2592 4.5244 -1.5770 0
M  V30 3 C -5.3374 5.4327 -1.5574 0
M  V30 4 C -6.0502 5.4113 -0.3415 0
M  V30 5 C -5.7615 4.6272 0.6792 0
M  V30 6 C -4.7011 3.7511 0.6161 0
M  V30 7 H -3.6578 4.5132 -2.5123 0
M  V30 8 H -5.5743 6.0453 -2.3387 0
M  V30 9 H -6.8975 6.1158 -0.3474 0
M  V30 10 H -6.3493 4.6319 1.6122 0
M  V30 11 H -4.4096 3.0909 1.4171 0
M  V30 12 Br -2.8158 2.7790 -0.5590 0
M  V30 END ATOM
M  V30 BEGIN BOND
M  V30 1 1 1 2
M  V30 2 1 2 3
M  V30 3 1 3 4
M  V30 4 1 4 5
M  V30 5 1 5 6
M  V30 6 1 6 1
M  V30 7 1 2 7
M  V30 8 1 3 8
M  V30 9 1 4 9
M  V30 10 1 5 10
M  V30 11 1 6 11
M  V30 12 1 12 1
M  V30 END BOND
M  V30 END CTAB
M  END

$$$$
