
     RDKit          3D

  0  0  0  0  0  0  0  0  0  0999 V3000
M  V30 BEGIN CTAB
M  V30 COUNTS 12 12 0 0 0
M  V30 BEGIN ATOM
M  V30 1 C -4.8266 -1.7485 0.4668 0
M  V30 2 C -5.6677 -1.8312 -0.6231 0
M  V30 3 C -6.9584 -2.2958 -0.5810 0
M  V30 4 C -7.4480 -2.7093 0.6067 0
M  V30 5 C -6.6691 -2.6637 1.7207 0
M  V30 6 C -5.3876 -2.1957 1.6645 0
M  V30 7 H -5.2496 -1.4903 -1.6050 0
M  V30 8 H -7.5331 -2.3115 -1.5208 0
M  V30 9 H -8.4744 -3.0931 0.6733 0
M  V30 10 H -7.0030 -2.9884 2.7140 0
M  V30 11 H -4.7271 -2.1461 2.5275 0
M  V30 12 Br -3.5416 -1.1954 0.2872 0
M  V30 END ATOM
M  V30 BEGIN BOND
M  V30 1 1 1 2
M  V30 2 1 2 3
M  V30 3 1 3 4
M  V30 4 1 4 5
M  V30 5 1 5 6
M  V30 6 1 6 1
M  V30 7 1 2 7
M  V30 8 1 3 8
M  V30 9 1 4 9
M  V30 10 1 5 10
M  V30 11 1 6 11
M  V30 12 1 12 1
M  V30 END BOND
M  V30 END CTAB
M  END

$$$$
