
     RDKit          3D

  0  0  0  0  0  0  0  0  0  0999 V3000
M  V30 BEGIN CTAB
M  V30 COUNTS 10 10 0 0 0
M  V30 BEGIN ATOM
M  V30 1 C -0.5655 -0.9901 0.1064 0
M  V30 2 C 0.5220 -0.8787 -0.7597 0
M  V30 3 N 1.1802 0.3047 -0.8721 0
M  V30 4 C 0.7931 1.3886 -0.1492 0
M  V30 5 N -0.2644 1.2987 0.6999 0
M  V30 6 C -0.9480 0.1328 0.8399 0
M  V30 7 H -1.1000 -1.9259 0.2069 0
M  V30 8 H 0.8431 -1.7318 -1.3424 0
M  V30 9 H 1.3271 2.3235 -0.2496 0
M  V30 10 H -1.7875 0.0782 1.5200 0
M  V30 END ATOM
M  V30 BEGIN BOND
M  V30 1 2 1 2
M  V30 2 1 2 3
M  V30 3 2 3 4
M  V30 4 1 4 5
M  V30 5 2 5 6
M  V30 6 1 6 1
M  V30 7 1 1 7
M  V30 8 1 2 8
M  V30 9 1 4 9
M  V30 10 1 6 10
M  V30 END BOND
M  V30 END CTAB
M  END

$$$$
