
     RDKit          3D

  0  0  0  0  0  0  0  0  0  0999 V3000
M  V30 BEGIN CTAB
M  V30 COUNTS 10 10 0 0 0
M  V30 BEGIN ATOM
M  V30 1 C -0.5020 -1.0239 0.1056 0
M  V30 2 C -1.0291 0.0988 0.7435 0
M  V30 3 N -0.4190 1.3051 0.6062 0
M  V30 4 C 0.7041 1.4359 -0.1480 0
M  V30 5 N 1.2320 0.3529 -0.7771 0
M  V30 6 C 0.6509 -0.8701 -0.6640 0
M  V30 7 H -0.9765 -1.9915 0.2053 0
M  V30 8 H -1.9224 0.0120 1.3475 0
M  V30 9 H 1.1781 2.4026 -0.2477 0
M  V30 10 H 1.0840 -1.7219 -1.1713 0
M  V30 END ATOM
M  V30 BEGIN BOND
M  V30 1 2 1 2
M  V30 2 1 2 3
M  V30 3 2 3 4
M  V30 4 1 4 5
M  V30 5 2 5 6
M  V30 6 1 6 1
M  V30 7 1 1 7
M  V30 8 1 2 8
M  V30 9 1 4 9
M  V30 10 1 6 10
M  V30 END BOND
M  V30 END CTAB
M  END

$$$$
