
     RDKit          3D

  0  0  0  0  0  0  0  0  0  0999 V3000
M  V30 BEGIN CTAB
M  V30 COUNTS 12 12 0 0 0
M  V30 BEGIN ATOM
M  V30 1 C -1.3317 0.4024 -0.1480 0
M  V30 2 C -0.3127 1.3599 -0.1013 0
M  V30 3 C 1.0190 0.9575 0.0467 0
M  V30 4 C 1.3317 -0.4024 0.1480 0
M  V30 5 C 0.3127 -1.3599 0.1013 0
M  V30 6 C -1.0190 -0.9575 -0.0467 0
M  V30 7 H -2.3620 0.7137 -0.2626 0
M  V30 8 H -0.5546 2.4119 -0.1797 0
M  V30 9 H 1.8074 1.6982 0.0829 0
M  V30 10 H 2.3620 -0.7137 0.2626 0
M  V30 11 H 0.5546 -2.4119 0.1797 0
M  V30 12 H -1.8074 -1.6982 -0.0829 0
M  V30 END ATOM
M  V30 BEGIN BOND
M  V30 1 2 1 2
M  V30 2 1 2 3
M  V30 3 2 3 4
M  V30 4 1 4 5
M  V30 5 2 5 6
M  V30 6 1 6 1
M  V30 7 1 1 7
M  V30 8 1 2 8
M  V30 9 1 3 9
M  V30 10 1 4 10
M  V30 11 1 5 11
M  V30 12 1 6 12
M  V30 END BOND
M  V30 END CTAB
M  END

$$$$
