
     RDKit          3D

  0  0  0  0  0  0  0  0  0  0999 V3000
M  V30 BEGIN CTAB
M  V30 COUNTS 20 19 0 0 0
M  V30 BEGIN ATOM
M  V30 1 N -0.5735 2.8439 -0.8029 0
M  V30 2 C 0.7431 2.4435 -0.3147 0
M  V30 3 C 0.6483 1.1417 0.4838 0
M  V30 4 N 0.1313 0.0585 -0.3618 0
M  V30 5 C -0.0391 -1.1668 0.4272 0
M  V30 6 C -0.6625 -2.2663 -0.4416 0
M  V30 7 N -0.8708 -3.4951 0.3214 0
M  V30 8 H -0.4465 3.6942 -1.3981 0
M  V30 9 H -1.1507 3.1398 0.0179 0
M  V30 10 H 1.1651 3.2440 0.3332 0
M  V30 11 H 1.4302 2.2989 -1.1771 0
M  V30 12 H -0.0253 1.3070 1.3544 0
M  V30 13 H 1.6607 0.8809 0.8672 0
M  V30 14 H 0.8447 -0.1354 -1.1044 0
M  V30 15 H 0.9456 -1.5145 0.8146 0
M  V30 16 H -0.7150 -0.9705 1.2893 0
M  V30 17 H 0.0035 -2.4849 -1.3044 0
M  V30 18 H -1.6394 -1.9160 -0.8403 0
M  V30 19 H 0.0486 -3.8152 0.7042 0
M  V30 20 H -1.4984 -3.2876 1.1322 0
M  V30 END ATOM
M  V30 BEGIN BOND
M  V30 1 1 1 2
M  V30 2 1 2 3
M  V30 3 1 3 4
M  V30 4 1 4 5
M  V30 5 1 5 6
M  V30 6 1 6 7
M  V30 7 1 1 8
M  V30 8 1 1 9
M  V30 9 1 2 10
M  V30 10 1 2 11
M  V30 11 1 3 12
M  V30 12 1 3 13
M  V30 13 1 4 14
M  V30 14 1 5 15
M  V30 15 1 5 16
M  V30 16 1 6 17
M  V30 17 1 6 18
M  V30 18 1 7 19
M  V30 19 1 7 20
M  V30 END BOND
M  V30 END CTAB
M  END

$$$$
