
     RDKit          3D

  0  0  0  0  0  0  0  0  0  0999 V3000
M  V30 BEGIN CTAB
M  V30 COUNTS 24 25 0 0 0
M  V30 BEGIN ATOM
M  V30 1 C -0.3027 3.3238 0.0653 0
M  V30 2 N 0.4811 2.0963 0.1568 0
M  V30 3 C 1.8162 1.9940 0.3691 0
M  V30 4 N 2.2558 0.7088 0.3988 0
M  V30 5 C 1.1267 0.0009 0.1924 0
M  V30 6 C 0.0639 0.8242 0.0455 0
M  V30 7 C -1.2032 0.3046 -0.1845 0
M  V30 8 O -2.1985 1.0713 -0.2992 0
M  V30 9 N -1.3382 -1.0619 -0.2825 0
M  V30 10 C -0.2381 -1.8859 -0.1058 0
M  V30 11 O -0.3768 -3.1403 -0.1717 0
M  V30 12 N 1.0093 -1.3539 0.1427 0
M  V30 13 C 2.1881 -2.2188 0.2853 0
M  V30 14 C -2.6682 -1.6534 -0.5060 0
M  V30 15 H -0.7853 3.3865 -0.9325 0
M  V30 16 H -1.0820 3.3305 0.8559 0
M  V30 17 H 0.3499 4.2123 0.2015 0
M  V30 18 H 2.4704 2.8461 0.5023 0
M  V30 19 H 3.0126 -1.6984 0.8175 0
M  V30 20 H 2.5460 -2.5276 -0.7194 0
M  V30 21 H 1.9382 -3.1238 0.8792 0
M  V30 22 H -3.3291 -0.9649 -1.0744 0
M  V30 23 H -3.1405 -1.8862 0.4715 0
M  V30 24 H -2.5956 -2.5845 -1.1078 0
M  V30 END ATOM
M  V30 BEGIN BOND
M  V30 1 1 1 2
M  V30 2 1 2 3
M  V30 3 2 3 4
M  V30 4 1 4 5
M  V30 5 2 5 6
M  V30 6 1 6 7
M  V30 7 2 7 8
M  V30 8 1 7 9
M  V30 9 1 9 10
M  V30 10 2 10 11
M  V30 11 1 10 12
M  V30 12 1 12 13
M  V30 13 1 9 14
M  V30 14 1 6 2
M  V30 15 1 12 5
M  V30 16 1 1 15
M  V30 17 1 1 16
M  V30 18 1 1 17
M  V30 19 1 3 18
M  V30 20 1 13 19
M  V30 21 1 13 20
M  V30 22 1 13 21
M  V30 23 1 14 22
M  V30 24 1 14 23
M  V30 25 1 14 24
M  V30 END BOND
M  V30 END CTAB
M  END

$$$$
