
     RDKit          3D

  0  0  0  0  0  0  0  0  0  0999 V3000
M  V30 BEGIN CTAB
M  V30 COUNTS 20 19 0 0 0
M  V30 BEGIN ATOM
M  V30 1 N -0.5803 2.8725 -0.6877 0
M  V30 2 C 0.6825 2.4802 -0.0685 0
M  V30 3 C 0.5420 1.1258 0.6296 0
M  V30 4 N 0.1714 0.0864 -0.3387 0
M  V30 5 C -0.0459 -1.1933 0.3455 0
M  V30 6 C -0.5187 -2.2507 -0.6597 0
M  V30 7 N -0.7703 -3.5333 -0.0061 0
M  V30 8 H -0.4151 3.7640 -1.2088 0
M  V30 9 H -1.2624 3.0957 0.0734 0
M  V30 10 H 0.9933 3.2481 0.6747 0
M  V30 11 H 1.4730 2.4139 -0.8480 0
M  V30 12 H -0.2367 1.2126 1.4201 0
M  V30 13 H 1.5104 0.8706 1.1166 0
M  V30 14 H 0.9755 -0.0362 -0.9994 0
M  V30 15 H 0.8978 -1.5363 0.8277 0
M  V30 16 H -0.8271 -1.0751 1.1293 0
M  V30 17 H 0.2537 -2.3913 -1.4468 0
M  V30 18 H -1.4533 -1.9041 -1.1520 0
M  V30 19 H 0.1081 -3.8504 0.4652 0
M  V30 20 H -1.4979 -3.3991 0.7334 0
M  V30 END ATOM
M  V30 BEGIN BOND
M  V30 1 1 1 2
M  V30 2 1 2 3
M  V30 3 1 3 4
M  V30 4 1 4 5
M  V30 5 1 5 6
M  V30 6 1 6 7
M  V30 7 1 1 8
M  V30 8 1 1 9
M  V30 9 1 2 10
M  V30 10 1 2 11
M  V30 11 1 3 12
M  V30 12 1 3 13
M  V30 13 1 4 14
M  V30 14 1 5 15
M  V30 15 1 5 16
M  V30 16 1 6 17
M  V30 17 1 6 18
M  V30 18 1 7 19
M  V30 19 1 7 20
M  V30 END BOND
M  V30 END CTAB
M  END

$$$$
