
     RDKit          3D

  0  0  0  0  0  0  0  0  0  0999 V3000
M  V30 BEGIN CTAB
M  V30 COUNTS 12 12 0 0 0
M  V30 BEGIN ATOM
M  V30 1 C -1.2900 0.4457 -0.0182 0
M  V30 2 C -0.2857 1.3824 -0.0099 0
M  V30 3 C 1.0256 0.9229 0.0086 0
M  V30 4 C 1.2895 -0.4500 0.0182 0
M  V30 5 C 0.2682 -1.3782 0.0097 0
M  V30 6 C -1.0227 -0.8950 -0.0087 0
M  V30 7 H -2.3380 0.7609 -0.0328 0
M  V30 8 H -0.4726 2.4419 -0.0172 0
M  V30 9 H 1.8617 1.6067 0.0159 0
M  V30 10 H 2.3296 -0.7883 0.0328 0
M  V30 11 H 0.4792 -2.4519 0.0173 0
M  V30 12 H -1.8448 -1.5971 -0.0158 0
M  V30 END ATOM
M  V30 BEGIN BOND
M  V30 1 2 1 2
M  V30 2 1 2 3
M  V30 3 2 3 4
M  V30 4 1 4 5
M  V30 5 2 5 6
M  V30 6 1 6 1
M  V30 7 1 1 7
M  V30 8 1 2 8
M  V30 9 1 3 9
M  V30 10 1 4 10
M  V30 11 1 5 11
M  V30 12 1 6 12
M  V30 END BOND
M  V30 END CTAB
M  END

$$$$
