
     RDKit          3D

  0  0  0  0  0  0  0  0  0  0999 V3000
M  V30 BEGIN CTAB
M  V30 COUNTS 80 82 0 0 0
M  V30 BEGIN ATOM
M  V30 1 C 0.2820 -1.3374 3.7685 0
M  V30 2 C -0.1408 0.0109 4.2296 0
M  V30 3 C 0.8526 1.0374 3.7685 0
M  V30 4 C -1.5019 0.3123 3.7685 0
M  V30 5 H 0.3979 -1.5673 2.7231 0
M  V30 6 H -0.1492 0.0338 5.3403 0
M  V30 7 H 1.0210 1.1508 2.6922 0
M  V30 8 H -2.0171 1.2399 3.9857 0
M  V30 9 C 0.8676 -4.5939 -0.2717 0
M  V30 10 C 0.8721 -4.5547 -1.7576 0
M  V30 11 C -0.5146 -4.2764 -2.2601 0
M  V30 12 C 1.8454 -3.5700 -2.2463 0
M  V30 13 H 0.5648 -3.7440 0.3158 0
M  V30 14 H 1.1734 -5.5492 -2.1508 0
M  V30 15 H -0.9990 -3.3416 -1.9579 0
M  V30 16 H 2.0208 -3.3701 -3.2962 0
M  V30 17 C 2.8871 2.6124 -0.3029 0
M  V30 18 C 2.8509 2.5967 -1.7887 0
M  V30 19 C 3.3032 1.2566 -2.2913 0
M  V30 20 C 1.5115 2.9472 -2.2775 0
M  V30 21 H 2.3026 1.9252 0.2846 0
M  V30 22 H 3.5615 3.3548 -2.1819 0
M  V30 23 H 2.7359 0.3697 -1.9891 0
M  V30 24 H 1.2507 2.9991 -3.3274 0
M  V30 25 C -4.4408 0.3652 -0.8822 0
M  V30 26 C -4.4091 0.3417 -2.3681 0
M  V30 27 C -3.4747 1.4035 -2.8707 0
M  V30 28 C -4.0430 -0.9936 -2.8569 0
M  V30 29 H -3.5534 0.2026 -0.2947 0
M  V30 30 H -5.4210 0.5780 -2.7613 0
M  V30 31 H -2.4230 1.3556 -2.5685 0
M  V30 32 H -3.9575 -1.2454 -3.9068 0
M  V30 33 N 0.8410 -3.0094 3.8301 0
M  V30 34 C 0.8873 -4.4454 3.8531 0
M  V30 35 C 1.7639 -4.9841 2.7262 0
M  V30 36 N 1.3286 -4.6269 1.4410 0
M  V30 37 H -0.1371 -4.8648 3.7761 0
M  V30 38 H 1.3848 -4.7404 4.8021 0
M  V30 39 H 2.7738 -4.5125 2.8994 0
M  V30 40 H 1.8603 -6.0764 2.8322 0
M  V30 41 N 2.1626 1.9717 3.5955 0
M  V30 42 C 3.3832 2.7295 3.6185 0
M  V30 43 C 3.4115 3.7582 2.4917 0
M  V30 44 N 3.3196 3.2027 1.2064 0
M  V30 45 H 4.2585 2.0519 3.5413 0
M  V30 46 H 3.3901 3.3077 4.5675 0
M  V30 47 H 2.4983 4.3971 2.6650 0
M  V30 48 H 4.3094 4.3876 2.5976 0
M  V30 49 N -3.1365 0.4999 3.1628 0
M  V30 50 C -4.4040 1.1764 3.1861 0
M  V30 51 C -5.3081 0.6864 2.0587 0
M  V30 52 N -4.7810 0.8864 0.7738 0
M  V30 53 H -4.2562 2.2735 3.1101 0
M  V30 54 H -4.9080 0.8917 4.1349 0
M  V30 55 H -5.4033 -0.4243 2.2310 0
M  V30 56 H -6.3028 1.1478 2.1649 0
M  V30 57 N 3.4342 -2.9141 -2.7453 0
M  V30 58 C 4.3182 -2.3178 -3.7084 0
M  V30 59 C 4.9955 -1.0759 -3.1362 0
M  V30 60 N 4.1035 -0.0657 -2.7453 0
M  V30 61 H 3.7621 -2.0598 -4.6333 0
M  V30 62 H 5.1294 -3.0518 -3.9046 0
M  V30 63 H 5.5360 -1.4431 -2.2168 0
M  V30 64 H 5.7387 -0.7027 -3.8587 0
M  V30 65 N -1.7091 -4.6241 -3.1740 0
M  V30 66 C -3.0674 -4.9265 -3.5320 0
M  V30 67 C -3.7788 -3.6917 -4.0778 0
M  V30 68 N -3.8413 -2.6202 -3.1740 0
M  V30 69 H -3.6160 -5.3291 -2.6555 0
M  V30 70 H -3.0292 -5.6581 -4.3677 0
M  V30 71 H -3.1561 -3.3706 -4.9617 0
M  V30 72 H -4.7804 -3.9787 -4.4357 0
M  V30 73 N -0.0538 3.6764 -2.6874 0
M  V30 74 C -1.0122 4.1439 -3.6505 0
M  V30 75 C -2.4264 4.1094 -3.0784 0
M  V30 76 N -2.8553 2.8319 -2.6874 0
M  V30 77 H -0.9577 3.5333 -4.5755 0
M  V30 78 H -0.7822 5.2134 -3.8468 0
M  V30 79 H -2.3787 4.7612 -2.1590 0
M  V30 80 H -3.1213 4.5665 -3.8008 0
M  V30 END ATOM
M  V30 BEGIN BOND
M  V30 1 1 1 2
M  V30 2 1 2 3
M  V30 3 1 2 4
M  V30 4 1 1 5
M  V30 5 1 2 6
M  V30 6 1 3 7
M  V30 7 1 4 8
M  V30 8 1 9 10
M  V30 9 1 10 11
M  V30 10 1 10 12
M  V30 11 1 9 13
M  V30 12 1 10 14
M  V30 13 1 11 15
M  V30 14 1 12 16
M  V30 15 1 17 18
M  V30 16 1 18 19
M  V30 17 1 18 20
M  V30 18 1 17 21
M  V30 19 1 18 22
M  V30 20 1 19 23
M  V30 21 1 20 24
M  V30 22 1 25 26
M  V30 23 1 26 27
M  V30 24 1 26 28
M  V30 25 1 25 29
M  V30 26 1 26 30
M  V30 27 1 27 31
M  V30 28 1 28 32
M  V30 29 1 33 34
M  V30 30 1 34 35
M  V30 31 1 35 36
M  V30 32 1 34 37
M  V30 33 1 34 38
M  V30 34 1 35 39
M  V30 35 1 35 40
M  V30 36 1 41 42
M  V30 37 1 42 43
M  V30 38 1 43 44
M  V30 39 1 42 45
M  V30 40 1 42 46
M  V30 41 1 43 47
M  V30 42 1 43 48
M  V30 43 1 49 50
M  V30 44 1 50 51
M  V30 45 1 51 52
M  V30 46 1 50 53
M  V30 47 1 50 54
M  V30 48 1 51 55
M  V30 49 1 51 56
M  V30 50 1 57 58
M  V30 51 1 58 59
M  V30 52 1 59 60
M  V30 53 1 58 61
M  V30 54 1 58 62
M  V30 55 1 59 63
M  V30 56 1 59 64
M  V30 57 1 65 66
M  V30 58 1 66 67
M  V30 59 1 67 68
M  V30 60 1 66 69
M  V30 61 1 66 70
M  V30 62 1 67 71
M  V30 63 1 67 72
M  V30 64 1 73 74
M  V30 65 1 74 75
M  V30 66 1 75 76
M  V30 67 1 74 77
M  V30 68 1 74 78
M  V30 69 1 75 79
M  V30 70 1 75 80
M  V30 71 2 1 33
M  V30 72 2 9 36
M  V30 73 2 3 41
M  V30 74 2 17 44
M  V30 75 2 4 49
M  V30 76 2 25 52
M  V30 77 2 12 57
M  V30 78 2 19 60
M  V30 79 2 11 65
M  V30 80 2 28 68
M  V30 81 2 20 73
M  V30 82 2 27 76
M  V30 END BOND
M  V30 END CTAB
M  END

$$$$
