
     RDKit          3D

  0  0  0  0  0  0  0  0  0  0999 V3000
M  V30 BEGIN CTAB
M  V30 COUNTS 20 19 0 0 0
M  V30 BEGIN ATOM
M  V30 1 N -0.5022 2.7072 -1.0118 0
M  V30 2 C 0.8820 2.3474 -0.6384 0
M  V30 3 C 0.7529 1.1807 0.3612 0
M  V30 4 N 0.1369 0.0957 -0.3496 0
M  V30 5 C -0.2542 -1.0102 0.4388 0
M  V30 6 C -0.5435 -2.1840 -0.4700 0
M  V30 7 N -0.9603 -3.3283 0.3320 0
M  V30 8 H -0.6166 3.7299 -0.8680 0
M  V30 9 H -1.1986 2.2683 -0.3276 0
M  V30 10 H 1.4452 3.1852 -0.2033 0
M  V30 11 H 1.4070 2.0241 -1.5567 0
M  V30 12 H 0.1035 1.4782 1.2070 0
M  V30 13 H 1.7630 0.8733 0.7342 0
M  V30 14 H 0.4975 -0.0253 -1.2794 0
M  V30 15 H 0.4821 -1.2256 1.2467 0
M  V30 16 H -1.2502 -0.7116 0.9372 0
M  V30 17 H 0.4401 -2.4071 -0.9943 0
M  V30 18 H -1.2779 -1.8821 -1.2209 0
M  V30 19 H -0.1748 -4.0489 0.3774 0
M  V30 20 H -1.1318 -3.0670 1.3145 0
M  V30 END ATOM
M  V30 BEGIN BOND
M  V30 1 1 1 2
M  V30 2 1 2 3
M  V30 3 1 3 4
M  V30 4 1 4 5
M  V30 5 1 5 6
M  V30 6 1 6 7
M  V30 7 1 1 8
M  V30 8 1 1 9
M  V30 9 1 2 10
M  V30 10 1 2 11
M  V30 11 1 3 12
M  V30 12 1 3 13
M  V30 13 1 4 14
M  V30 14 1 5 15
M  V30 15 1 5 16
M  V30 16 1 6 17
M  V30 17 1 6 18
M  V30 18 1 7 19
M  V30 19 1 7 20
M  V30 END BOND
M  V30 END CTAB
M  END

$$$$
