
     RDKit          3D

  0  0  0  0  0  0  0  0  0  0999 V3000
M  V30 BEGIN CTAB
M  V30 COUNTS 80 82 0 0 0
M  V30 BEGIN ATOM
M  V30 1 C 0.0817 -1.2612 3.8328 0
M  V30 2 C -0.3411 0.0872 4.2939 0
M  V30 3 C 0.6523 1.1136 3.8328 0
M  V30 4 C -1.7022 0.3886 3.8328 0
M  V30 5 H 0.1976 -1.4910 2.7874 0
M  V30 6 H -0.3495 0.1101 5.4047 0
M  V30 7 H 0.8207 1.2271 2.7565 0
M  V30 8 H -2.2174 1.3161 4.0500 0
M  V30 9 C 1.0722 -4.0992 -0.2564 0
M  V30 10 C 1.0767 -4.0599 -1.7422 0
M  V30 11 C -0.3100 -3.7816 -2.2448 0
M  V30 12 C 2.0500 -3.0752 -2.2310 0
M  V30 13 H 0.7694 -3.2493 0.3311 0
M  V30 14 H 1.3780 -5.0544 -2.1354 0
M  V30 15 H -0.7944 -2.8469 -1.9426 0
M  V30 16 H 2.2254 -2.8753 -3.2809 0
M  V30 17 C 2.5570 3.2119 -0.4931 0
M  V30 18 C 2.5207 3.1962 -1.9790 0
M  V30 19 C 2.9731 1.8561 -2.4815 0
M  V30 20 C 1.1813 3.5468 -2.4677 0
M  V30 21 H 1.9724 2.5247 0.0944 0
M  V30 22 H 3.2314 3.9544 -2.3721 0
M  V30 23 H 2.4058 0.9693 -2.1793 0
M  V30 24 H 0.9205 3.5987 -3.5176 0
M  V30 25 C -4.5522 1.1366 -0.6293 0
M  V30 26 C -4.5205 1.1131 -2.1152 0
M  V30 27 C -3.5860 2.1749 -2.6177 0
M  V30 28 C -4.1543 -0.2222 -2.6040 0
M  V30 29 H -3.6647 0.9739 -0.0418 0
M  V30 30 H -5.5323 1.3494 -2.5084 0
M  V30 31 H -2.5344 2.1270 -2.3156 0
M  V30 32 H -4.0688 -0.4740 -3.6538 0
M  V30 33 N 0.7826 -2.7388 3.7609 0
M  V30 34 C 0.8289 -4.1748 3.7839 0
M  V30 35 C 1.7055 -4.7135 2.6570 0
M  V30 36 N 1.2702 -4.3563 1.3718 0
M  V30 37 H -0.1955 -4.5942 3.7069 0
M  V30 38 H 1.3263 -4.4698 4.7329 0
M  V30 39 H 2.7154 -4.2418 2.8302 0
M  V30 40 H 1.8019 -5.8058 2.7630 0
M  V30 41 N 2.0641 2.1514 3.4762 0
M  V30 42 C 3.2846 2.9092 3.4992 0
M  V30 43 C 3.3130 3.9378 2.3724 0
M  V30 44 N 3.2210 3.3824 1.0871 0
M  V30 45 H 4.1599 2.2316 3.4220 0
M  V30 46 H 3.2916 3.4874 4.4482 0
M  V30 47 H 2.3997 4.5768 2.5457 0
M  V30 48 H 4.2109 4.5673 2.4783 0
M  V30 49 N -3.2294 0.7438 3.2663 0
M  V30 50 C -4.4969 1.4202 3.2896 0
M  V30 51 C -5.4010 0.9303 2.1622 0
M  V30 52 N -4.8739 1.1303 0.8772 0
M  V30 53 H -4.3491 2.5173 3.2135 0
M  V30 54 H -5.0009 1.1356 4.2383 0
M  V30 55 H -5.4962 -0.1804 2.3345 0
M  V30 56 H -6.3957 1.3917 2.2683 0
M  V30 57 N 3.4519 -2.1518 -2.7493 0
M  V30 58 C 4.3359 -1.5555 -3.7124 0
M  V30 59 C 5.0132 -0.3136 -3.1403 0
M  V30 60 N 4.1212 0.6966 -2.7493 0
M  V30 61 H 3.7799 -1.2975 -4.6373 0
M  V30 62 H 5.1471 -2.2895 -3.9086 0
M  V30 63 H 5.5537 -0.6808 -2.2209 0
M  V30 64 H 5.7564 0.0597 -3.8627 0
M  V30 65 N -1.8270 -3.7987 -2.8953 0
M  V30 66 C -3.1854 -4.1011 -3.2533 0
M  V30 67 C -3.8967 -2.8663 -3.7990 0
M  V30 68 N -3.9592 -1.7948 -2.8953 0
M  V30 69 H -3.7339 -4.5037 -2.3767 0
M  V30 70 H -3.1471 -4.8327 -4.0890 0
M  V30 71 H -3.2740 -2.5452 -4.6830 0
M  V30 72 H -4.8983 -3.1533 -4.1570 0
M  V30 73 N -0.2473 4.4714 -2.9418 0
M  V30 74 C -1.2057 4.9389 -3.9049 0
M  V30 75 C -2.6199 4.9044 -3.3328 0
M  V30 76 N -3.0488 3.6268 -2.9418 0
M  V30 77 H -1.1511 4.3283 -4.8298 0
M  V30 78 H -0.9757 6.0083 -4.1011 0
M  V30 79 H -2.5722 5.5561 -2.4134 0
M  V30 80 H -3.3147 5.3614 -4.0552 0
M  V30 END ATOM
M  V30 BEGIN BOND
M  V30 1 1 1 2
M  V30 2 1 2 3
M  V30 3 1 2 4
M  V30 4 1 1 5
M  V30 5 1 2 6
M  V30 6 1 3 7
M  V30 7 1 4 8
M  V30 8 1 9 10
M  V30 9 1 10 11
M  V30 10 1 10 12
M  V30 11 1 9 13
M  V30 12 1 10 14
M  V30 13 1 11 15
M  V30 14 1 12 16
M  V30 15 1 17 18
M  V30 16 1 18 19
M  V30 17 1 18 20
M  V30 18 1 17 21
M  V30 19 1 18 22
M  V30 20 1 19 23
M  V30 21 1 20 24
M  V30 22 1 25 26
M  V30 23 1 26 27
M  V30 24 1 26 28
M  V30 25 1 25 29
M  V30 26 1 26 30
M  V30 27 1 27 31
M  V30 28 1 28 32
M  V30 29 1 33 34
M  V30 30 1 34 35
M  V30 31 1 35 36
M  V30 32 1 34 37
M  V30 33 1 34 38
M  V30 34 1 35 39
M  V30 35 1 35 40
M  V30 36 1 41 42
M  V30 37 1 42 43
M  V30 38 1 43 44
M  V30 39 1 42 45
M  V30 40 1 42 46
M  V30 41 1 43 47
M  V30 42 1 43 48
M  V30 43 1 49 50
M  V30 44 1 50 51
M  V30 45 1 51 52
M  V30 46 1 50 53
M  V30 47 1 50 54
M  V30 48 1 51 55
M  V30 49 1 51 56
M  V30 50 1 57 58
M  V30 51 1 58 59
M  V30 52 1 59 60
M  V30 53 1 58 61
M  V30 54 1 58 62
M  V30 55 1 59 63
M  V30 56 1 59 64
M  V30 57 1 65 66
M  V30 58 1 66 67
M  V30 59 1 67 68
M  V30 60 1 66 69
M  V30 61 1 66 70
M  V30 62 1 67 71
M  V30 63 1 67 72
M  V30 64 1 73 74
M  V30 65 1 74 75
M  V30 66 1 75 76
M  V30 67 1 74 77
M  V30 68 1 74 78
M  V30 69 1 75 79
M  V30 70 1 75 80
M  V30 71 2 1 33
M  V30 72 2 9 36
M  V30 73 2 3 41
M  V30 74 2 17 44
M  V30 75 2 4 49
M  V30 76 2 25 52
M  V30 77 2 12 57
M  V30 78 2 19 60
M  V30 79 2 11 65
M  V30 80 2 28 68
M  V30 81 2 20 73
M  V30 82 2 27 76
M  V30 END BOND
M  V30 END CTAB
M  END

$$$$
